<NUMBER OF ZONES> 98
<NUMBER OF NODES> 975
<FIRST THRU NODE> 99
<NUMBER OF LINKS> 2184
<END OF METADATA> 



~ 	Init node 	Term node 	Capacity 	Length 	Free Flow Time 	B 	Power 	Speed limit 	Toll 	Type 	; 
 	1   	817 	999999.0000000000 	  0.0000000000 	 0.0000000000 	0.0000000000 	4.000000 	0.000000 	0.000000 	0 	; 
 	1   	818 	999999.0000000000 	  0.0000000000 	 0.0000000000 	0.0000000000 	4.000000 	0.000000 	0.000000 	0 	; 
 	1   	821 	999999.0000000000 	  0.0000000000 	 0.0000000000 	0.0000000000 	4.000000 	0.000000 	0.000000 	0 	; 
 	1   	822 	999999.0000000000 	  0.0000000000 	 0.0000000000 	0.0000000000 	4.000000 	0.000000 	0.000000 	0 	; 
 	2   	751 	999999.0000000000 	  0.0000000000 	 0.0000000000 	0.0000000000 	4.000000 	0.000000 	0.000000 	0 	; 
 	2   	753 	999999.0000000000 	  0.0000000000 	 0.0000000000 	0.0000000000 	4.000000 	0.000000 	0.000000 	0 	; 
 	2   	754 	999999.0000000000 	  0.0000000000 	 0.0000000000 	0.0000000000 	4.000000 	0.000000 	0.000000 	0 	; 
 	2   	781 	999999.0000000000 	  0.0000000000 	 0.0000000000 	0.0000000000 	4.000000 	0.000000 	0.000000 	0 	; 
 	3   	756 	999999.0000000000 	  0.0000000000 	 0.0000000000 	0.0000000000 	4.000000 	0.000000 	0.000000 	0 	; 
 	3   	757 	999999.0000000000 	  0.0000000000 	 0.0000000000 	0.0000000000 	4.000000 	0.000000 	0.000000 	0 	; 
 	3   	758 	999999.0000000000 	  0.0000000000 	 0.0000000000 	0.0000000000 	4.000000 	0.000000 	0.000000 	0 	; 
 	3   	759 	999999.0000000000 	  0.0000000000 	 0.0000000000 	0.0000000000 	4.000000 	0.000000 	0.000000 	0 	; 
 	4   	719 	999999.0000000000 	  0.0000000000 	 0.0000000000 	0.0000000000 	4.000000 	0.000000 	0.000000 	0 	; 
 	4   	724 	999999.0000000000 	  0.0000000000 	 0.0000000000 	0.0000000000 	4.000000 	0.000000 	0.000000 	0 	; 
 	4   	725 	999999.0000000000 	  0.0000000000 	 0.0000000000 	0.0000000000 	4.000000 	0.000000 	0.000000 	0 	; 
 	4   	761 	999999.0000000000 	  0.0000000000 	 0.0000000000 	0.0000000000 	4.000000 	0.000000 	0.000000 	0 	; 
 	5   	752 	999999.0000000000 	  0.0000000000 	 0.0000000000 	0.0000000000 	4.000000 	0.000000 	0.000000 	0 	; 
 	5   	753 	999999.0000000000 	  0.0000000000 	 0.0000000000 	0.0000000000 	4.000000 	0.000000 	0.000000 	0 	; 
 	5   	892 	999999.0000000000 	  0.0000000000 	 0.0000000000 	0.0000000000 	4.000000 	0.000000 	0.000000 	0 	; 
 	5   	893 	999999.0000000000 	  0.0000000000 	 0.0000000000 	0.0000000000 	4.000000 	0.000000 	0.000000 	0 	; 
 	6   	679 	999999.0000000000 	  0.0000000000 	 0.0000000000 	0.0000000000 	4.000000 	0.000000 	0.000000 	0 	; 
 	6   	707 	999999.0000000000 	  0.0000000000 	 0.0000000000 	0.0000000000 	4.000000 	0.000000 	0.000000 	0 	; 
 	6   	762 	999999.0000000000 	  0.0000000000 	 0.0000000000 	0.0000000000 	4.000000 	0.000000 	0.000000 	0 	; 
 	6   	809 	999999.0000000000 	  0.0000000000 	 0.0000000000 	0.0000000000 	4.000000 	0.000000 	0.000000 	0 	; 
 	7   	222 	999999.0000000000 	  0.0000000000 	 0.0000000000 	0.0000000000 	4.000000 	0.000000 	0.000000 	0 	; 
 	7   	223 	999999.0000000000 	  0.0000000000 	 0.0000000000 	0.0000000000 	4.000000 	0.000000 	0.000000 	0 	; 
 	7   	232 	999999.0000000000 	  0.0000000000 	 0.0000000000 	0.0000000000 	4.000000 	0.000000 	0.000000 	0 	; 
 	7   	241 	999999.0000000000 	  0.0000000000 	 0.0000000000 	0.0000000000 	4.000000 	0.000000 	0.000000 	0 	; 
 	8   	899 	999999.0000000000 	  0.0000000000 	 0.0000000000 	0.0000000000 	4.000000 	0.000000 	0.000000 	0 	; 
 	8   	900 	999999.0000000000 	  0.0000000000 	 0.0000000000 	0.0000000000 	4.000000 	0.000000 	0.000000 	0 	; 
 	8   	901 	999999.0000000000 	  0.0000000000 	 0.0000000000 	0.0000000000 	4.000000 	0.000000 	0.000000 	0 	; 
 	8   	904 	999999.0000000000 	  0.0000000000 	 0.0000000000 	0.0000000000 	4.000000 	0.000000 	0.000000 	0 	; 
 	9   	588 	999999.0000000000 	  0.0000000000 	 0.0000000000 	0.0000000000 	4.000000 	0.000000 	0.000000 	0 	; 
 	9   	651 	999999.0000000000 	  0.0000000000 	 0.0000000000 	0.0000000000 	4.000000 	0.000000 	0.000000 	0 	; 
 	9   	659 	999999.0000000000 	  0.0000000000 	 0.0000000000 	0.0000000000 	4.000000 	0.000000 	0.000000 	0 	; 
 	9   	902 	999999.0000000000 	  0.0000000000 	 0.0000000000 	0.0000000000 	4.000000 	0.000000 	0.000000 	0 	; 
 	10  	564 	999999.0000000000 	  0.0000000000 	 0.0000000000 	0.0000000000 	4.000000 	0.000000 	0.000000 	0 	; 
 	10  	566 	999999.0000000000 	  0.0000000000 	 0.0000000000 	0.0000000000 	4.000000 	0.000000 	0.000000 	0 	; 
 	10  	568 	999999.0000000000 	  0.0000000000 	 0.0000000000 	0.0000000000 	4.000000 	0.000000 	0.000000 	0 	; 
 	10  	570 	999999.0000000000 	  0.0000000000 	 0.0000000000 	0.0000000000 	4.000000 	0.000000 	0.000000 	0 	; 
 	11  	258 	999999.0000000000 	  0.0000000000 	 0.0000000000 	0.0000000000 	4.000000 	0.000000 	0.000000 	0 	; 
 	11  	784 	999999.0000000000 	  0.0000000000 	 0.0000000000 	0.0000000000 	4.000000 	0.000000 	0.000000 	0 	; 
 	11  	788 	999999.0000000000 	  0.0000000000 	 0.0000000000 	0.0000000000 	4.000000 	0.000000 	0.000000 	0 	; 
 	11  	792 	999999.0000000000 	  0.0000000000 	 0.0000000000 	0.0000000000 	4.000000 	0.000000 	0.000000 	0 	; 
 	12  	433 	999999.0000000000 	  0.0000000000 	 0.0000000000 	0.0000000000 	4.000000 	0.000000 	0.000000 	0 	; 
 	12  	437 	999999.0000000000 	  0.0000000000 	 0.0000000000 	0.0000000000 	4.000000 	0.000000 	0.000000 	0 	; 
 	12  	443 	999999.0000000000 	  0.0000000000 	 0.0000000000 	0.0000000000 	4.000000 	0.000000 	0.000000 	0 	; 
 	12  	444 	999999.0000000000 	  0.0000000000 	 0.0000000000 	0.0000000000 	4.000000 	0.000000 	0.000000 	0 	; 
 	13  	649 	999999.0000000000 	  0.0000000000 	 0.0000000000 	0.0000000000 	4.000000 	0.000000 	0.000000 	0 	; 
 	13  	684 	999999.0000000000 	  0.0000000000 	 0.0000000000 	0.0000000000 	4.000000 	0.000000 	0.000000 	0 	; 
 	13  	686 	999999.0000000000 	  0.0000000000 	 0.0000000000 	0.0000000000 	4.000000 	0.000000 	0.000000 	0 	; 
 	13  	974 	999999.0000000000 	  0.0000000000 	 0.0000000000 	0.0000000000 	4.000000 	0.000000 	0.000000 	0 	; 
 	14  	462 	999999.0000000000 	  0.0000000000 	 0.0000000000 	0.0000000000 	4.000000 	0.000000 	0.000000 	0 	; 
 	14  	463 	999999.0000000000 	  0.0000000000 	 0.0000000000 	0.0000000000 	4.000000 	0.000000 	0.000000 	0 	; 
 	14  	464 	999999.0000000000 	  0.0000000000 	 0.0000000000 	0.0000000000 	4.000000 	0.000000 	0.000000 	0 	; 
 	14  	467 	999999.0000000000 	  0.0000000000 	 0.0000000000 	0.0000000000 	4.000000 	0.000000 	0.000000 	0 	; 
 	15  	648 	999999.0000000000 	  0.0000000000 	 0.0000000000 	0.0000000000 	4.000000 	0.000000 	0.000000 	0 	; 
 	15  	658 	999999.0000000000 	  0.0000000000 	 0.0000000000 	0.0000000000 	4.000000 	0.000000 	0.000000 	0 	; 
 	15  	660 	999999.0000000000 	  0.0000000000 	 0.0000000000 	0.0000000000 	4.000000 	0.000000 	0.000000 	0 	; 
 	15  	674 	999999.0000000000 	  0.0000000000 	 0.0000000000 	0.0000000000 	4.000000 	0.000000 	0.000000 	0 	; 
 	16  	366 	999999.0000000000 	  0.0000000000 	 0.0000000000 	0.0000000000 	4.000000 	0.000000 	0.000000 	0 	; 
 	16  	767 	999999.0000000000 	  0.0000000000 	 0.0000000000 	0.0000000000 	4.000000 	0.000000 	0.000000 	0 	; 
 	16  	769 	999999.0000000000 	  0.0000000000 	 0.0000000000 	0.0000000000 	4.000000 	0.000000 	0.000000 	0 	; 
 	16  	770 	999999.0000000000 	  0.0000000000 	 0.0000000000 	0.0000000000 	4.000000 	0.000000 	0.000000 	0 	; 
 	17  	370 	999999.0000000000 	  0.0000000000 	 0.0000000000 	0.0000000000 	4.000000 	0.000000 	0.000000 	0 	; 
 	17  	471 	999999.0000000000 	  0.0000000000 	 0.0000000000 	0.0000000000 	4.000000 	0.000000 	0.000000 	0 	; 
 	17  	472 	999999.0000000000 	  0.0000000000 	 0.0000000000 	0.0000000000 	4.000000 	0.000000 	0.000000 	0 	; 
 	17  	474 	999999.0000000000 	  0.0000000000 	 0.0000000000 	0.0000000000 	4.000000 	0.000000 	0.000000 	0 	; 
 	18  	395 	999999.0000000000 	  0.0000000000 	 0.0000000000 	0.0000000000 	4.000000 	0.000000 	0.000000 	0 	; 
 	18  	454 	999999.0000000000 	  0.0000000000 	 0.0000000000 	0.0000000000 	4.000000 	0.000000 	0.000000 	0 	; 
 	18  	868 	999999.0000000000 	  0.0000000000 	 0.0000000000 	0.0000000000 	4.000000 	0.000000 	0.000000 	0 	; 
 	18  	870 	999999.0000000000 	  0.0000000000 	 0.0000000000 	0.0000000000 	4.000000 	0.000000 	0.000000 	0 	; 
 	19  	143 	999999.0000000000 	  0.0000000000 	 0.0000000000 	0.0000000000 	4.000000 	0.000000 	0.000000 	0 	; 
 	19  	286 	999999.0000000000 	  0.0000000000 	 0.0000000000 	0.0000000000 	4.000000 	0.000000 	0.000000 	0 	; 
 	19  	290 	999999.0000000000 	  0.0000000000 	 0.0000000000 	0.0000000000 	4.000000 	0.000000 	0.000000 	0 	; 
 	19  	804 	999999.0000000000 	  0.0000000000 	 0.0000000000 	0.0000000000 	4.000000 	0.000000 	0.000000 	0 	; 
 	20  	334 	999999.0000000000 	  0.0000000000 	 0.0000000000 	0.0000000000 	4.000000 	0.000000 	0.000000 	0 	; 
 	20  	335 	999999.0000000000 	  0.0000000000 	 0.0000000000 	0.0000000000 	4.000000 	0.000000 	0.000000 	0 	; 
 	20  	364 	999999.0000000000 	  0.0000000000 	 0.0000000000 	0.0000000000 	4.000000 	0.000000 	0.000000 	0 	; 
 	20  	367 	999999.0000000000 	  0.0000000000 	 0.0000000000 	0.0000000000 	4.000000 	0.000000 	0.000000 	0 	; 
 	21  	353 	999999.0000000000 	  0.0000000000 	 0.0000000000 	0.0000000000 	4.000000 	0.000000 	0.000000 	0 	; 
 	21  	360 	999999.0000000000 	  0.0000000000 	 0.0000000000 	0.0000000000 	4.000000 	0.000000 	0.000000 	0 	; 
 	21  	920 	999999.0000000000 	  0.0000000000 	 0.0000000000 	0.0000000000 	4.000000 	0.000000 	0.000000 	0 	; 
 	21  	922 	999999.0000000000 	  0.0000000000 	 0.0000000000 	0.0000000000 	4.000000 	0.000000 	0.000000 	0 	; 
 	22  	639 	999999.0000000000 	  0.0000000000 	 0.0000000000 	0.0000000000 	4.000000 	0.000000 	0.000000 	0 	; 
 	22  	641 	999999.0000000000 	  0.0000000000 	 0.0000000000 	0.0000000000 	4.000000 	0.000000 	0.000000 	0 	; 
 	22  	642 	999999.0000000000 	  0.0000000000 	 0.0000000000 	0.0000000000 	4.000000 	0.000000 	0.000000 	0 	; 
 	22  	938 	999999.0000000000 	  0.0000000000 	 0.0000000000 	0.0000000000 	4.000000 	0.000000 	0.000000 	0 	; 
 	23  	278 	999999.0000000000 	  0.0000000000 	 0.0000000000 	0.0000000000 	4.000000 	0.000000 	0.000000 	0 	; 
 	23  	875 	999999.0000000000 	  0.0000000000 	 0.0000000000 	0.0000000000 	4.000000 	0.000000 	0.000000 	0 	; 
 	23  	877 	999999.0000000000 	  0.0000000000 	 0.0000000000 	0.0000000000 	4.000000 	0.000000 	0.000000 	0 	; 
 	23  	878 	999999.0000000000 	  0.0000000000 	 0.0000000000 	0.0000000000 	4.000000 	0.000000 	0.000000 	0 	; 
 	24  	456 	999999.0000000000 	  0.0000000000 	 0.0000000000 	0.0000000000 	4.000000 	0.000000 	0.000000 	0 	; 
 	24  	733 	999999.0000000000 	  0.0000000000 	 0.0000000000 	0.0000000000 	4.000000 	0.000000 	0.000000 	0 	; 
 	24  	734 	999999.0000000000 	  0.0000000000 	 0.0000000000 	0.0000000000 	4.000000 	0.000000 	0.000000 	0 	; 
 	24  	735 	999999.0000000000 	  0.0000000000 	 0.0000000000 	0.0000000000 	4.000000 	0.000000 	0.000000 	0 	; 
 	25  	768 	999999.0000000000 	  0.0000000000 	 0.0000000000 	0.0000000000 	4.000000 	0.000000 	0.000000 	0 	; 
 	25  	772 	999999.0000000000 	  0.0000000000 	 0.0000000000 	0.0000000000 	4.000000 	0.000000 	0.000000 	0 	; 
 	25  	773 	999999.0000000000 	  0.0000000000 	 0.0000000000 	0.0000000000 	4.000000 	0.000000 	0.000000 	0 	; 
 	25  	775 	999999.0000000000 	  0.0000000000 	 0.0000000000 	0.0000000000 	4.000000 	0.000000 	0.000000 	0 	; 
 	26  	455 	999999.0000000000 	  0.0000000000 	 0.0000000000 	0.0000000000 	4.000000 	0.000000 	0.000000 	0 	; 
 	26  	768 	999999.0000000000 	  0.0000000000 	 0.0000000000 	0.0000000000 	4.000000 	0.000000 	0.000000 	0 	; 
 	26  	774 	999999.0000000000 	  0.0000000000 	 0.0000000000 	0.0000000000 	4.000000 	0.000000 	0.000000 	0 	; 
 	26  	826 	999999.0000000000 	  0.0000000000 	 0.0000000000 	0.0000000000 	4.000000 	0.000000 	0.000000 	0 	; 
 	27  	132 	999999.0000000000 	  0.0000000000 	 0.0000000000 	0.0000000000 	4.000000 	0.000000 	0.000000 	0 	; 
 	27  	200 	999999.0000000000 	  0.0000000000 	 0.0000000000 	0.0000000000 	4.000000 	0.000000 	0.000000 	0 	; 
 	27  	203 	999999.0000000000 	  0.0000000000 	 0.0000000000 	0.0000000000 	4.000000 	0.000000 	0.000000 	0 	; 
 	27  	268 	999999.0000000000 	  0.0000000000 	 0.0000000000 	0.0000000000 	4.000000 	0.000000 	0.000000 	0 	; 
 	28  	153 	999999.0000000000 	  0.0000000000 	 0.0000000000 	0.0000000000 	4.000000 	0.000000 	0.000000 	0 	; 
 	28  	158 	999999.0000000000 	  0.0000000000 	 0.0000000000 	0.0000000000 	4.000000 	0.000000 	0.000000 	0 	; 
 	28  	164 	999999.0000000000 	  0.0000000000 	 0.0000000000 	0.0000000000 	4.000000 	0.000000 	0.000000 	0 	; 
 	28  	167 	999999.0000000000 	  0.0000000000 	 0.0000000000 	0.0000000000 	4.000000 	0.000000 	0.000000 	0 	; 
 	29  	151 	999999.0000000000 	  0.0000000000 	 0.0000000000 	0.0000000000 	4.000000 	0.000000 	0.000000 	0 	; 
 	29  	152 	999999.0000000000 	  0.0000000000 	 0.0000000000 	0.0000000000 	4.000000 	0.000000 	0.000000 	0 	; 
 	29  	546 	999999.0000000000 	  0.0000000000 	 0.0000000000 	0.0000000000 	4.000000 	0.000000 	0.000000 	0 	; 
 	29  	549 	999999.0000000000 	  0.0000000000 	 0.0000000000 	0.0000000000 	4.000000 	0.000000 	0.000000 	0 	; 
 	30  	151 	999999.0000000000 	  0.0000000000 	 0.0000000000 	0.0000000000 	4.000000 	0.000000 	0.000000 	0 	; 
 	30  	152 	999999.0000000000 	  0.0000000000 	 0.0000000000 	0.0000000000 	4.000000 	0.000000 	0.000000 	0 	; 
 	30  	160 	999999.0000000000 	  0.0000000000 	 0.0000000000 	0.0000000000 	4.000000 	0.000000 	0.000000 	0 	; 
 	30  	953 	999999.0000000000 	  0.0000000000 	 0.0000000000 	0.0000000000 	4.000000 	0.000000 	0.000000 	0 	; 
 	31  	169 	999999.0000000000 	  0.0000000000 	 0.0000000000 	0.0000000000 	4.000000 	0.000000 	0.000000 	0 	; 
 	31  	171 	999999.0000000000 	  0.0000000000 	 0.0000000000 	0.0000000000 	4.000000 	0.000000 	0.000000 	0 	; 
 	31  	216 	999999.0000000000 	  0.0000000000 	 0.0000000000 	0.0000000000 	4.000000 	0.000000 	0.000000 	0 	; 
 	31  	217 	999999.0000000000 	  0.0000000000 	 0.0000000000 	0.0000000000 	4.000000 	0.000000 	0.000000 	0 	; 
 	32  	340 	999999.0000000000 	  0.0000000000 	 0.0000000000 	0.0000000000 	4.000000 	0.000000 	0.000000 	0 	; 
 	32  	341 	999999.0000000000 	  0.0000000000 	 0.0000000000 	0.0000000000 	4.000000 	0.000000 	0.000000 	0 	; 
 	32  	345 	999999.0000000000 	  0.0000000000 	 0.0000000000 	0.0000000000 	4.000000 	0.000000 	0.000000 	0 	; 
 	32  	352 	999999.0000000000 	  0.0000000000 	 0.0000000000 	0.0000000000 	4.000000 	0.000000 	0.000000 	0 	; 
 	33  	343 	999999.0000000000 	  0.0000000000 	 0.0000000000 	0.0000000000 	4.000000 	0.000000 	0.000000 	0 	; 
 	33  	347 	999999.0000000000 	  0.0000000000 	 0.0000000000 	0.0000000000 	4.000000 	0.000000 	0.000000 	0 	; 
 	33  	348 	999999.0000000000 	  0.0000000000 	 0.0000000000 	0.0000000000 	4.000000 	0.000000 	0.000000 	0 	; 
 	33  	476 	999999.0000000000 	  0.0000000000 	 0.0000000000 	0.0000000000 	4.000000 	0.000000 	0.000000 	0 	; 
 	34  	632 	999999.0000000000 	  0.0000000000 	 0.0000000000 	0.0000000000 	4.000000 	0.000000 	0.000000 	0 	; 
 	34  	633 	999999.0000000000 	  0.0000000000 	 0.0000000000 	0.0000000000 	4.000000 	0.000000 	0.000000 	0 	; 
 	34  	634 	999999.0000000000 	  0.0000000000 	 0.0000000000 	0.0000000000 	4.000000 	0.000000 	0.000000 	0 	; 
 	34  	637 	999999.0000000000 	  0.0000000000 	 0.0000000000 	0.0000000000 	4.000000 	0.000000 	0.000000 	0 	; 
 	35  	597 	999999.0000000000 	  0.0000000000 	 0.0000000000 	0.0000000000 	4.000000 	0.000000 	0.000000 	0 	; 
 	35  	710 	999999.0000000000 	  0.0000000000 	 0.0000000000 	0.0000000000 	4.000000 	0.000000 	0.000000 	0 	; 
 	35  	711 	999999.0000000000 	  0.0000000000 	 0.0000000000 	0.0000000000 	4.000000 	0.000000 	0.000000 	0 	; 
 	35  	712 	999999.0000000000 	  0.0000000000 	 0.0000000000 	0.0000000000 	4.000000 	0.000000 	0.000000 	0 	; 
 	36  	479 	999999.0000000000 	  0.0000000000 	 0.0000000000 	0.0000000000 	4.000000 	0.000000 	0.000000 	0 	; 
 	36  	493 	999999.0000000000 	  0.0000000000 	 0.0000000000 	0.0000000000 	4.000000 	0.000000 	0.000000 	0 	; 
 	36  	494 	999999.0000000000 	  0.0000000000 	 0.0000000000 	0.0000000000 	4.000000 	0.000000 	0.000000 	0 	; 
 	36  	497 	999999.0000000000 	  0.0000000000 	 0.0000000000 	0.0000000000 	4.000000 	0.000000 	0.000000 	0 	; 
 	37  	299 	999999.0000000000 	  0.0000000000 	 0.0000000000 	0.0000000000 	4.000000 	0.000000 	0.000000 	0 	; 
 	37  	739 	999999.0000000000 	  0.0000000000 	 0.0000000000 	0.0000000000 	4.000000 	0.000000 	0.000000 	0 	; 
 	37  	744 	999999.0000000000 	  0.0000000000 	 0.0000000000 	0.0000000000 	4.000000 	0.000000 	0.000000 	0 	; 
 	37  	846 	999999.0000000000 	  0.0000000000 	 0.0000000000 	0.0000000000 	4.000000 	0.000000 	0.000000 	0 	; 
 	38  	294 	999999.0000000000 	  0.0000000000 	 0.0000000000 	0.0000000000 	4.000000 	0.000000 	0.000000 	0 	; 
 	38  	749 	999999.0000000000 	  0.0000000000 	 0.0000000000 	0.0000000000 	4.000000 	0.000000 	0.000000 	0 	; 
 	38  	779 	999999.0000000000 	  0.0000000000 	 0.0000000000 	0.0000000000 	4.000000 	0.000000 	0.000000 	0 	; 
 	38  	782 	999999.0000000000 	  0.0000000000 	 0.0000000000 	0.0000000000 	4.000000 	0.000000 	0.000000 	0 	; 
 	39  	294 	999999.0000000000 	  0.0000000000 	 0.0000000000 	0.0000000000 	4.000000 	0.000000 	0.000000 	0 	; 
 	39  	297 	999999.0000000000 	  0.0000000000 	 0.0000000000 	0.0000000000 	4.000000 	0.000000 	0.000000 	0 	; 
 	39  	299 	999999.0000000000 	  0.0000000000 	 0.0000000000 	0.0000000000 	4.000000 	0.000000 	0.000000 	0 	; 
 	39  	739 	999999.0000000000 	  0.0000000000 	 0.0000000000 	0.0000000000 	4.000000 	0.000000 	0.000000 	0 	; 
 	40  	796 	999999.0000000000 	  0.0000000000 	 0.0000000000 	0.0000000000 	4.000000 	0.000000 	0.000000 	0 	; 
 	40  	800 	999999.0000000000 	  0.0000000000 	 0.0000000000 	0.0000000000 	4.000000 	0.000000 	0.000000 	0 	; 
 	40  	801 	999999.0000000000 	  0.0000000000 	 0.0000000000 	0.0000000000 	4.000000 	0.000000 	0.000000 	0 	; 
 	40  	897 	999999.0000000000 	  0.0000000000 	 0.0000000000 	0.0000000000 	4.000000 	0.000000 	0.000000 	0 	; 
 	41  	701 	999999.0000000000 	  0.0000000000 	 0.0000000000 	0.0000000000 	4.000000 	0.000000 	0.000000 	0 	; 
 	41  	704 	999999.0000000000 	  0.0000000000 	 0.0000000000 	0.0000000000 	4.000000 	0.000000 	0.000000 	0 	; 
 	41  	705 	999999.0000000000 	  0.0000000000 	 0.0000000000 	0.0000000000 	4.000000 	0.000000 	0.000000 	0 	; 
 	41  	736 	999999.0000000000 	  0.0000000000 	 0.0000000000 	0.0000000000 	4.000000 	0.000000 	0.000000 	0 	; 
 	42  	830 	999999.0000000000 	  0.0000000000 	 0.0000000000 	0.0000000000 	4.000000 	0.000000 	0.000000 	0 	; 
 	42  	912 	999999.0000000000 	  0.0000000000 	 0.0000000000 	0.0000000000 	4.000000 	0.000000 	0.000000 	0 	; 
 	42  	913 	999999.0000000000 	  0.0000000000 	 0.0000000000 	0.0000000000 	4.000000 	0.000000 	0.000000 	0 	; 
 	42  	915 	999999.0000000000 	  0.0000000000 	 0.0000000000 	0.0000000000 	4.000000 	0.000000 	0.000000 	0 	; 
 	43  	721 	999999.0000000000 	  0.0000000000 	 0.0000000000 	0.0000000000 	4.000000 	0.000000 	0.000000 	0 	; 
 	43  	794 	999999.0000000000 	  0.0000000000 	 0.0000000000 	0.0000000000 	4.000000 	0.000000 	0.000000 	0 	; 
 	43  	795 	999999.0000000000 	  0.0000000000 	 0.0000000000 	0.0000000000 	4.000000 	0.000000 	0.000000 	0 	; 
 	43  	796 	999999.0000000000 	  0.0000000000 	 0.0000000000 	0.0000000000 	4.000000 	0.000000 	0.000000 	0 	; 
 	44  	706 	999999.0000000000 	  0.0000000000 	 0.0000000000 	0.0000000000 	4.000000 	0.000000 	0.000000 	0 	; 
 	44  	708 	999999.0000000000 	  0.0000000000 	 0.0000000000 	0.0000000000 	4.000000 	0.000000 	0.000000 	0 	; 
 	44  	719 	999999.0000000000 	  0.0000000000 	 0.0000000000 	0.0000000000 	4.000000 	0.000000 	0.000000 	0 	; 
 	44  	724 	999999.0000000000 	  0.0000000000 	 0.0000000000 	0.0000000000 	4.000000 	0.000000 	0.000000 	0 	; 
 	45  	846 	999999.0000000000 	  0.0000000000 	 0.0000000000 	0.0000000000 	4.000000 	0.000000 	0.000000 	0 	; 
 	45  	930 	999999.0000000000 	  0.0000000000 	 0.0000000000 	0.0000000000 	4.000000 	0.000000 	0.000000 	0 	; 
 	45  	934 	999999.0000000000 	  0.0000000000 	 0.0000000000 	0.0000000000 	4.000000 	0.000000 	0.000000 	0 	; 
 	45  	936 	999999.0000000000 	  0.0000000000 	 0.0000000000 	0.0000000000 	4.000000 	0.000000 	0.000000 	0 	; 
 	46  	844 	999999.0000000000 	  0.0000000000 	 0.0000000000 	0.0000000000 	4.000000 	0.000000 	0.000000 	0 	; 
 	46  	860 	999999.0000000000 	  0.0000000000 	 0.0000000000 	0.0000000000 	4.000000 	0.000000 	0.000000 	0 	; 
 	46  	861 	999999.0000000000 	  0.0000000000 	 0.0000000000 	0.0000000000 	4.000000 	0.000000 	0.000000 	0 	; 
 	46  	863 	999999.0000000000 	  0.0000000000 	 0.0000000000 	0.0000000000 	4.000000 	0.000000 	0.000000 	0 	; 
 	47  	856 	999999.0000000000 	  0.0000000000 	 0.0000000000 	0.0000000000 	4.000000 	0.000000 	0.000000 	0 	; 
 	47  	857 	999999.0000000000 	  0.0000000000 	 0.0000000000 	0.0000000000 	4.000000 	0.000000 	0.000000 	0 	; 
 	47  	861 	999999.0000000000 	  0.0000000000 	 0.0000000000 	0.0000000000 	4.000000 	0.000000 	0.000000 	0 	; 
 	47  	864 	999999.0000000000 	  0.0000000000 	 0.0000000000 	0.0000000000 	4.000000 	0.000000 	0.000000 	0 	; 
 	48  	292 	999999.0000000000 	  0.0000000000 	 0.0000000000 	0.0000000000 	4.000000 	0.000000 	0.000000 	0 	; 
 	48  	302 	999999.0000000000 	  0.0000000000 	 0.0000000000 	0.0000000000 	4.000000 	0.000000 	0.000000 	0 	; 
 	48  	785 	999999.0000000000 	  0.0000000000 	 0.0000000000 	0.0000000000 	4.000000 	0.000000 	0.000000 	0 	; 
 	48  	789 	999999.0000000000 	  0.0000000000 	 0.0000000000 	0.0000000000 	4.000000 	0.000000 	0.000000 	0 	; 
 	49  	693 	999999.0000000000 	  0.0000000000 	 0.0000000000 	0.0000000000 	4.000000 	0.000000 	0.000000 	0 	; 
 	49  	696 	999999.0000000000 	  0.0000000000 	 0.0000000000 	0.0000000000 	4.000000 	0.000000 	0.000000 	0 	; 
 	49  	697 	999999.0000000000 	  0.0000000000 	 0.0000000000 	0.0000000000 	4.000000 	0.000000 	0.000000 	0 	; 
 	49  	698 	999999.0000000000 	  0.0000000000 	 0.0000000000 	0.0000000000 	4.000000 	0.000000 	0.000000 	0 	; 
 	50  	139 	999999.0000000000 	  0.0000000000 	 0.0000000000 	0.0000000000 	4.000000 	0.000000 	0.000000 	0 	; 
 	50  	584 	999999.0000000000 	  0.0000000000 	 0.0000000000 	0.0000000000 	4.000000 	0.000000 	0.000000 	0 	; 
 	50  	586 	999999.0000000000 	  0.0000000000 	 0.0000000000 	0.0000000000 	4.000000 	0.000000 	0.000000 	0 	; 
 	50  	587 	999999.0000000000 	  0.0000000000 	 0.0000000000 	0.0000000000 	4.000000 	0.000000 	0.000000 	0 	; 
 	51  	529 	999999.0000000000 	  0.0000000000 	 0.0000000000 	0.0000000000 	4.000000 	0.000000 	0.000000 	0 	; 
 	51  	530 	999999.0000000000 	  0.0000000000 	 0.0000000000 	0.0000000000 	4.000000 	0.000000 	0.000000 	0 	; 
 	51  	531 	999999.0000000000 	  0.0000000000 	 0.0000000000 	0.0000000000 	4.000000 	0.000000 	0.000000 	0 	; 
 	51  	951 	999999.0000000000 	  0.0000000000 	 0.0000000000 	0.0000000000 	4.000000 	0.000000 	0.000000 	0 	; 
 	52  	247 	999999.0000000000 	  0.0000000000 	 0.0000000000 	0.0000000000 	4.000000 	0.000000 	0.000000 	0 	; 
 	52  	248 	999999.0000000000 	  0.0000000000 	 0.0000000000 	0.0000000000 	4.000000 	0.000000 	0.000000 	0 	; 
 	52  	369 	999999.0000000000 	  0.0000000000 	 0.0000000000 	0.0000000000 	4.000000 	0.000000 	0.000000 	0 	; 
 	52  	370 	999999.0000000000 	  0.0000000000 	 0.0000000000 	0.0000000000 	4.000000 	0.000000 	0.000000 	0 	; 
 	53  	247 	999999.0000000000 	  0.0000000000 	 0.0000000000 	0.0000000000 	4.000000 	0.000000 	0.000000 	0 	; 
 	53  	248 	999999.0000000000 	  0.0000000000 	 0.0000000000 	0.0000000000 	4.000000 	0.000000 	0.000000 	0 	; 
 	53  	249 	999999.0000000000 	  0.0000000000 	 0.0000000000 	0.0000000000 	4.000000 	0.000000 	0.000000 	0 	; 
 	53  	250 	999999.0000000000 	  0.0000000000 	 0.0000000000 	0.0000000000 	4.000000 	0.000000 	0.000000 	0 	; 
 	54  	209 	999999.0000000000 	  0.0000000000 	 0.0000000000 	0.0000000000 	4.000000 	0.000000 	0.000000 	0 	; 
 	54  	211 	999999.0000000000 	  0.0000000000 	 0.0000000000 	0.0000000000 	4.000000 	0.000000 	0.000000 	0 	; 
 	54  	213 	999999.0000000000 	  0.0000000000 	 0.0000000000 	0.0000000000 	4.000000 	0.000000 	0.000000 	0 	; 
 	54  	218 	999999.0000000000 	  0.0000000000 	 0.0000000000 	0.0000000000 	4.000000 	0.000000 	0.000000 	0 	; 
 	55  	420 	999999.0000000000 	  0.0000000000 	 0.0000000000 	0.0000000000 	4.000000 	0.000000 	0.000000 	0 	; 
 	55  	421 	999999.0000000000 	  0.0000000000 	 0.0000000000 	0.0000000000 	4.000000 	0.000000 	0.000000 	0 	; 
 	55  	425 	999999.0000000000 	  0.0000000000 	 0.0000000000 	0.0000000000 	4.000000 	0.000000 	0.000000 	0 	; 
 	55  	426 	999999.0000000000 	  0.0000000000 	 0.0000000000 	0.0000000000 	4.000000 	0.000000 	0.000000 	0 	; 
 	56  	121 	999999.0000000000 	  0.0000000000 	 0.0000000000 	0.0000000000 	4.000000 	0.000000 	0.000000 	0 	; 
 	56  	122 	999999.0000000000 	  0.0000000000 	 0.0000000000 	0.0000000000 	4.000000 	0.000000 	0.000000 	0 	; 
 	56  	129 	999999.0000000000 	  0.0000000000 	 0.0000000000 	0.0000000000 	4.000000 	0.000000 	0.000000 	0 	; 
 	56  	449 	999999.0000000000 	  0.0000000000 	 0.0000000000 	0.0000000000 	4.000000 	0.000000 	0.000000 	0 	; 
 	57  	276 	999999.0000000000 	  0.0000000000 	 0.0000000000 	0.0000000000 	4.000000 	0.000000 	0.000000 	0 	; 
 	57  	354 	999999.0000000000 	  0.0000000000 	 0.0000000000 	0.0000000000 	4.000000 	0.000000 	0.000000 	0 	; 
 	57  	356 	999999.0000000000 	  0.0000000000 	 0.0000000000 	0.0000000000 	4.000000 	0.000000 	0.000000 	0 	; 
 	57  	358 	999999.0000000000 	  0.0000000000 	 0.0000000000 	0.0000000000 	4.000000 	0.000000 	0.000000 	0 	; 
 	58  	124 	999999.0000000000 	  0.0000000000 	 0.0000000000 	0.0000000000 	4.000000 	0.000000 	0.000000 	0 	; 
 	58  	125 	999999.0000000000 	  0.0000000000 	 0.0000000000 	0.0000000000 	4.000000 	0.000000 	0.000000 	0 	; 
 	58  	277 	999999.0000000000 	  0.0000000000 	 0.0000000000 	0.0000000000 	4.000000 	0.000000 	0.000000 	0 	; 
 	58  	285 	999999.0000000000 	  0.0000000000 	 0.0000000000 	0.0000000000 	4.000000 	0.000000 	0.000000 	0 	; 
 	59  	264 	999999.0000000000 	  0.0000000000 	 0.0000000000 	0.0000000000 	4.000000 	0.000000 	0.000000 	0 	; 
 	59  	269 	999999.0000000000 	  0.0000000000 	 0.0000000000 	0.0000000000 	4.000000 	0.000000 	0.000000 	0 	; 
 	59  	457 	999999.0000000000 	  0.0000000000 	 0.0000000000 	0.0000000000 	4.000000 	0.000000 	0.000000 	0 	; 
 	59  	700 	999999.0000000000 	  0.0000000000 	 0.0000000000 	0.0000000000 	4.000000 	0.000000 	0.000000 	0 	; 
 	60  	263 	999999.0000000000 	  0.0000000000 	 0.0000000000 	0.0000000000 	4.000000 	0.000000 	0.000000 	0 	; 
 	60  	265 	999999.0000000000 	  0.0000000000 	 0.0000000000 	0.0000000000 	4.000000 	0.000000 	0.000000 	0 	; 
 	60  	267 	999999.0000000000 	  0.0000000000 	 0.0000000000 	0.0000000000 	4.000000 	0.000000 	0.000000 	0 	; 
 	60  	272 	999999.0000000000 	  0.0000000000 	 0.0000000000 	0.0000000000 	4.000000 	0.000000 	0.000000 	0 	; 
 	61  	264 	999999.0000000000 	  0.0000000000 	 0.0000000000 	0.0000000000 	4.000000 	0.000000 	0.000000 	0 	; 
 	61  	269 	999999.0000000000 	  0.0000000000 	 0.0000000000 	0.0000000000 	4.000000 	0.000000 	0.000000 	0 	; 
 	61  	270 	999999.0000000000 	  0.0000000000 	 0.0000000000 	0.0000000000 	4.000000 	0.000000 	0.000000 	0 	; 
 	61  	700 	999999.0000000000 	  0.0000000000 	 0.0000000000 	0.0000000000 	4.000000 	0.000000 	0.000000 	0 	; 
 	62  	204 	999999.0000000000 	  0.0000000000 	 0.0000000000 	0.0000000000 	4.000000 	0.000000 	0.000000 	0 	; 
 	62  	206 	999999.0000000000 	  0.0000000000 	 0.0000000000 	0.0000000000 	4.000000 	0.000000 	0.000000 	0 	; 
 	62  	264 	999999.0000000000 	  0.0000000000 	 0.0000000000 	0.0000000000 	4.000000 	0.000000 	0.000000 	0 	; 
 	62  	266 	999999.0000000000 	  0.0000000000 	 0.0000000000 	0.0000000000 	4.000000 	0.000000 	0.000000 	0 	; 
 	63  	268 	999999.0000000000 	  0.0000000000 	 0.0000000000 	0.0000000000 	4.000000 	0.000000 	0.000000 	0 	; 
 	63  	272 	999999.0000000000 	  0.0000000000 	 0.0000000000 	0.0000000000 	4.000000 	0.000000 	0.000000 	0 	; 
 	63  	273 	999999.0000000000 	  0.0000000000 	 0.0000000000 	0.0000000000 	4.000000 	0.000000 	0.000000 	0 	; 
 	63  	323 	999999.0000000000 	  0.0000000000 	 0.0000000000 	0.0000000000 	4.000000 	0.000000 	0.000000 	0 	; 
 	64  	545 	999999.0000000000 	  0.0000000000 	 0.0000000000 	0.0000000000 	4.000000 	0.000000 	0.000000 	0 	; 
 	64  	551 	999999.0000000000 	  0.0000000000 	 0.0000000000 	0.0000000000 	4.000000 	0.000000 	0.000000 	0 	; 
 	64  	554 	999999.0000000000 	  0.0000000000 	 0.0000000000 	0.0000000000 	4.000000 	0.000000 	0.000000 	0 	; 
 	64  	644 	999999.0000000000 	  0.0000000000 	 0.0000000000 	0.0000000000 	4.000000 	0.000000 	0.000000 	0 	; 
 	65  	144 	999999.0000000000 	  0.0000000000 	 0.0000000000 	0.0000000000 	4.000000 	0.000000 	0.000000 	0 	; 
 	65  	184 	999999.0000000000 	  0.0000000000 	 0.0000000000 	0.0000000000 	4.000000 	0.000000 	0.000000 	0 	; 
 	65  	551 	999999.0000000000 	  0.0000000000 	 0.0000000000 	0.0000000000 	4.000000 	0.000000 	0.000000 	0 	; 
 	65  	555 	999999.0000000000 	  0.0000000000 	 0.0000000000 	0.0000000000 	4.000000 	0.000000 	0.000000 	0 	; 
 	66  	144 	999999.0000000000 	  0.0000000000 	 0.0000000000 	0.0000000000 	4.000000 	0.000000 	0.000000 	0 	; 
 	66  	145 	999999.0000000000 	  0.0000000000 	 0.0000000000 	0.0000000000 	4.000000 	0.000000 	0.000000 	0 	; 
 	66  	146 	999999.0000000000 	  0.0000000000 	 0.0000000000 	0.0000000000 	4.000000 	0.000000 	0.000000 	0 	; 
 	66  	219 	999999.0000000000 	  0.0000000000 	 0.0000000000 	0.0000000000 	4.000000 	0.000000 	0.000000 	0 	; 
 	67  	552 	999999.0000000000 	  0.0000000000 	 0.0000000000 	0.0000000000 	4.000000 	0.000000 	0.000000 	0 	; 
 	67  	583 	999999.0000000000 	  0.0000000000 	 0.0000000000 	0.0000000000 	4.000000 	0.000000 	0.000000 	0 	; 