<NUMBER OF ZONES> 98
<TOTAL OD FLOW> 23648.498999999949000
<END OF METADATA> 


Origin 1 
2 	: 	7.155000; 	3 	: 	6.153000; 	4 	: 	12.291000; 	5 	: 	9.252000; 	6 	: 	14.649000; 	
7 	: 	32.067000; 	8 	: 	23.394000; 	9 	: 	29.868000; 	10 	: 	4.137000; 	11 	: 	1.806000; 	
12 	: 	3.444000; 	13 	: 	1.566000; 	14 	: 	1.734000; 	15 	: 	8.256000; 	16 	: 	5.946000; 	
17 	: 	5.697000; 	18 	: 	6.666000; 	19 	: 	5.727000; 	20 	: 	5.778000; 	21 	: 	1.986000; 	
22 	: 	2.949000; 	23 	: 	2.625000; 	24 	: 	2.727000; 	25 	: 	1.785000; 	26 	: 	4.356000; 	
27 	: 	1.755000; 	28 	: 	5.898000; 	29 	: 	1.836000; 	30 	: 	1.998000; 	31 	: 	1.977000; 	
32 	: 	0.873000; 	33 	: 	0.375000; 	34 	: 	1.773000; 	35 	: 	2.619000; 	36 	: 	0.729000; 	
37 	: 	9.309000; 	38 	: 	10.116000; 	39 	: 	20.280000; 	40 	: 	10.572000; 	41 	: 	4.821000; 	
42 	: 	7.998000; 	43 	: 	4.476000; 	44 	: 	6.138000; 	45 	: 	2.499000; 	46 	: 	5.271000; 	
47 	: 	5.583000; 	48 	: 	4.866000; 	49 	: 	2.154000; 	50 	: 	16.602000; 	51 	: 	9.735000; 	
52 	: 	7.713000; 	53 	: 	1.866000; 	54 	: 	0.957000; 	55 	: 	2.091000; 	56 	: 	3.927000; 	
57 	: 	0.783000; 	58 	: 	1.500000; 	59 	: 	0.933000; 	60 	: 	1.608000; 	61 	: 	3.225000; 	
62 	: 	4.167000; 	63 	: 	1.947000; 	64 	: 	3.306000; 	65 	: 	3.150000; 	66 	: 	3.018000; 	
67 	: 	6.441000; 	68 	: 	3.399000; 	69 	: 	2.340000; 	70 	: 	2.991000; 	71 	: 	1.026000; 	
72 	: 	0.519000; 	73 	: 	2.496000; 	74 	: 	0.738000; 	75 	: 	3.885000; 	76 	: 	3.918000; 	
77 	: 	0.249000; 	78 	: 	14.016000; 	79 	: 	14.337000; 	80 	: 	5.454000; 	81 	: 	4.923000; 	
82 	: 	9.015000; 	83 	: 	2.031000; 	84 	: 	2.196000; 	85 	: 	3.987000; 	86 	: 	1.536000; 	
87 	: 	1.038000; 	88 	: 	1.632000; 	89 	: 	1.938000; 	90 	: 	1.542000; 	91 	: 	1.755000; 	
92 	: 	3.897000; 	93 	: 	0.729000; 	94 	: 	1.365000; 	95 	: 	0.636000; 	96 	: 	5.778000; 	
97 	: 	1.107000; 	98 	: 	0.534000; 	

Origin 2 
1 	: 	7.260000; 	3 	: 	0.795000; 	4 	: 	2.355000; 	5 	: 	1.890000; 	6 	: 	2.487000; 	
7 	: 	4.710000; 	8 	: 	5.004000; 	9 	: 	3.588000; 	10 	: 	1.437000; 	11 	: 	0.375000; 	
12 	: 	1.425000; 	13 	: 	0.771000; 	14 	: 	0.423000; 	15 	: 	2.403000; 	16 	: 	1.578000; 	
17 	: 	1.518000; 	18 	: 	1.602000; 	19 	: 	1.221000; 	20 	: 	1.386000; 	21 	: 	0.573000; 	
22 	: 	0.468000; 	23 	: 	0.171000; 	24 	: 	1.161000; 	25 	: 	0.669000; 	26 	: 	1.716000; 	
27 	: 	0.579000; 	28 	: 	1.605000; 	29 	: 	0.420000; 	30 	: 	0.639000; 	31 	: 	0.618000; 	
32 	: 	0.261000; 	33 	: 	0.066000; 	34 	: 	0.237000; 	35 	: 	0.825000; 	36 	: 	0.201000; 	
37 	: 	1.506000; 	38 	: 	1.086000; 	39 	: 	2.211000; 	40 	: 	2.616000; 	41 	: 	1.704000; 	
42 	: 	3.807000; 	43 	: 	1.113000; 	44 	: 	1.716000; 	45 	: 	0.288000; 	46 	: 	1.026000; 	
47 	: 	1.497000; 	48 	: 	0.981000; 	49 	: 	0.915000; 	50 	: 	2.589000; 	51 	: 	1.686000; 	
52 	: 	2.031000; 	53 	: 	0.357000; 	54 	: 	0.228000; 	55 	: 	0.417000; 	56 	: 	0.585000; 	
57 	: 	0.195000; 	58 	: 	0.306000; 	59 	: 	0.360000; 	60 	: 	0.408000; 	61 	: 	1.005000; 	
62 	: 	1.188000; 	63 	: 	0.645000; 	64 	: 	0.867000; 	65 	: 	0.939000; 	66 	: 	0.783000; 	
67 	: 	1.698000; 	68 	: 	1.419000; 	69 	: 	0.633000; 	70 	: 	1.035000; 	71 	: 	0.354000; 	
72 	: 	0.048000; 	73 	: 	0.663000; 	74 	: 	0.288000; 	75 	: 	1.659000; 	76 	: 	1.395000; 	
77 	: 	0.150000; 	78 	: 	2.814000; 	79 	: 	3.108000; 	80 	: 	1.665000; 	81 	: 	0.429000; 	
82 	: 	3.000000; 	83 	: 	0.441000; 	84 	: 	0.444000; 	85 	: 	0.840000; 	86 	: 	0.543000; 	
87 	: 	0.099000; 	88 	: 	0.555000; 	89 	: 	0.426000; 	90 	: 	0.324000; 	91 	: 	0.708000; 	
92 	: 	1.578000; 	93 	: 	0.108000; 	94 	: 	0.447000; 	95 	: 	0.099000; 	96 	: 	0.957000; 	
97 	: 	0.186000; 	98 	: 	0.036000; 	

Origin 3 
1 	: 	6.417000; 	2 	: 	0.789000; 	4 	: 	1.740000; 	5 	: 	1.704000; 	6 	: 	2.130000; 	
7 	: 	5.571000; 	8 	: 	3.798000; 	9 	: 	4.512000; 	10 	: 	1.170000; 	11 	: 	0.336000; 	
12 	: 	1.269000; 	13 	: 	0.537000; 	14 	: 	0.405000; 	15 	: 	2.025000; 	16 	: 	1.311000; 	
17 	: 	1.272000; 	18 	: 	1.137000; 	19 	: 	1.044000; 	20 	: 	1.197000; 	21 	: 	0.543000; 	
22 	: 	0.432000; 	23 	: 	0.273000; 	24 	: 	0.828000; 	25 	: 	0.597000; 	26 	: 	1.308000; 	
27 	: 	0.426000; 	28 	: 	1.497000; 	29 	: 	0.495000; 	30 	: 	0.498000; 	31 	: 	0.600000; 	
32 	: 	0.273000; 	33 	: 	0.192000; 	34 	: 	0.378000; 	35 	: 	0.747000; 	36 	: 	0.306000; 	
37 	: 	1.812000; 	38 	: 	1.383000; 	39 	: 	3.279000; 	40 	: 	2.022000; 	41 	: 	1.338000; 	
42 	: 	2.859000; 	43 	: 	0.780000; 	44 	: 	1.239000; 	45 	: 	0.417000; 	46 	: 	1.173000; 	
47 	: 	1.440000; 	48 	: 	1.047000; 	49 	: 	0.771000; 	50 	: 	2.865000; 	51 	: 	1.893000; 	
52 	: 	1.557000; 	53 	: 	0.315000; 	54 	: 	0.210000; 	55 	: 	0.402000; 	56 	: 	0.543000; 	
57 	: 	0.201000; 	58 	: 	0.282000; 	59 	: 	0.297000; 	60 	: 	0.354000; 	61 	: 	0.744000; 	
62 	: 	1.032000; 	63 	: 	0.570000; 	64 	: 	0.687000; 	65 	: 	0.867000; 	66 	: 	0.597000; 	
67 	: 	1.764000; 	68 	: 	0.954000; 	69 	: 	0.690000; 	70 	: 	0.810000; 	71 	: 	0.450000; 	
72 	: 	0.204000; 	73 	: 	0.744000; 	74 	: 	0.324000; 	75 	: 	1.437000; 	76 	: 	1.146000; 	
77 	: 	0.234000; 	78 	: 	2.505000; 	79 	: 	2.799000; 	80 	: 	1.200000; 	81 	: 	0.537000; 	
82 	: 	2.664000; 	83 	: 	0.366000; 	84 	: 	0.393000; 	85 	: 	0.861000; 	86 	: 	0.456000; 	
87 	: 	0.138000; 	88 	: 	0.423000; 	89 	: 	0.534000; 	90 	: 	0.426000; 	91 	: 	0.696000; 	
92 	: 	1.470000; 	93 	: 	0.159000; 	94 	: 	0.333000; 	95 	: 	0.168000; 	96 	: 	1.002000; 	
97 	: 	0.180000; 	98 	: 	0.060000; 	

Origin 4 
1 	: 	12.342000; 	2 	: 	2.274000; 	3 	: 	1.728000; 	5 	: 	3.810000; 	6 	: 	4.323000; 	
7 	: 	11.994000; 	8 	: 	6.492000; 	9 	: 	9.330000; 	10 	: 	2.388000; 	11 	: 	0.813000; 	
12 	: 	2.583000; 	13 	: 	1.038000; 	14 	: 	0.945000; 	15 	: 	4.425000; 	16 	: 	2.487000; 	
17 	: 	2.520000; 	18 	: 	2.250000; 	19 	: 	2.133000; 	20 	: 	2.445000; 	21 	: 	1.041000; 	
22 	: 	1.188000; 	23 	: 	0.909000; 	24 	: 	1.374000; 	25 	: 	1.212000; 	26 	: 	2.685000; 	
27 	: 	0.891000; 	28 	: 	2.871000; 	29 	: 	0.834000; 	30 	: 	1.542000; 	31 	: 	1.476000; 	
32 	: 	0.681000; 	33 	: 	0.675000; 	34 	: 	1.110000; 	35 	: 	1.737000; 	36 	: 	0.891000; 	
37 	: 	4.083000; 	38 	: 	3.912000; 	39 	: 	7.800000; 	40 	: 	4.473000; 	41 	: 	2.520000; 	
42 	: 	5.754000; 	43 	: 	1.539000; 	44 	: 	2.136000; 	45 	: 	1.119000; 	46 	: 	2.724000; 	
47 	: 	2.904000; 	48 	: 	2.487000; 	49 	: 	1.566000; 	50 	: 	7.179000; 	51 	: 	4.548000; 	
52 	: 	3.156000; 	53 	: 	0.711000; 	54 	: 	0.444000; 	55 	: 	0.867000; 	56 	: 	1.437000; 	
57 	: 	0.429000; 	58 	: 	0.735000; 	59 	: 	0.579000; 	60 	: 	0.660000; 	61 	: 	1.521000; 	
62 	: 	2.076000; 	63 	: 	1.002000; 	64 	: 	1.647000; 	65 	: 	1.611000; 	66 	: 	1.401000; 	
67 	: 	2.724000; 	68 	: 	2.610000; 	69 	: 	1.095000; 	70 	: 	2.694000; 	71 	: 	1.077000; 	
72 	: 	0.714000; 	73 	: 	1.863000; 	74 	: 	0.771000; 	75 	: 	2.730000; 	76 	: 	2.433000; 	
77 	: 	0.699000; 	78 	: 	5.382000; 	79 	: 	6.576000; 	80 	: 	2.289000; 	81 	: 	1.455000; 	
82 	: 	5.604000; 	83 	: 	0.798000; 	84 	: 	0.987000; 	85 	: 	1.752000; 	86 	: 	0.912000; 	
87 	: 	0.417000; 	88 	: 	1.230000; 	89 	: 	0.975000; 	90 	: 	0.855000; 	91 	: 	1.509000; 	
92 	: 	2.907000; 	93 	: 	0.444000; 	94 	: 	0.672000; 	95 	: 	0.660000; 	96 	: 	2.055000; 	
97 	: 	0.510000; 	98 	: 	0.210000; 	

Origin 5 
1 	: 	9.327000; 	2 	: 	1.857000; 	3 	: 	1.641000; 	4 	: 	3.780000; 	6 	: 	5.685000; 	
7 	: 	13.836000; 	8 	: 	8.961000; 	9 	: 	11.850000; 	10 	: 	2.037000; 	11 	: 	0.840000; 	
12 	: 	1.590000; 	13 	: 	0.663000; 	14 	: 	0.777000; 	15 	: 	3.273000; 	16 	: 	1.737000; 	
17 	: 	1.689000; 	18 	: 	1.761000; 	19 	: 	1.473000; 	20 	: 	1.530000; 	21 	: 	0.660000; 	
22 	: 	0.486000; 	23 	: 	0.651000; 	24 	: 	1.284000; 	25 	: 	0.885000; 	26 	: 	2.025000; 	
27 	: 	0.495000; 	28 	: 	2.208000; 	29 	: 	0.558000; 	30 	: 	0.504000; 	31 	: 	0.702000; 	
32 	: 	0.267000; 	33 	: 	0.093000; 	34 	: 	0.798000; 	35 	: 	0.999000; 	36 	: 	0.348000; 	
37 	: 	3.708000; 	38 	: 	3.093000; 	39 	: 	8.052000; 	40 	: 	3.294000; 	41 	: 	2.112000; 	
42 	: 	4.029000; 	43 	: 	1.407000; 	44 	: 	2.241000; 	45 	: 	1.206000; 	46 	: 	3.018000; 	
47 	: 	3.039000; 	48 	: 	2.409000; 	49 	: 	1.029000; 	50 	: 	6.366000; 	51 	: 	3.753000; 	
52 	: 	2.088000; 	53 	: 	0.516000; 	54 	: 	0.270000; 	55 	: 	0.483000; 	56 	: 	0.729000; 	
57 	: 	0.237000; 	58 	: 	0.327000; 	59 	: 	0.354000; 	60 	: 	0.624000; 	61 	: 	1.008000; 	
62 	: 	1.305000; 	63 	: 	0.756000; 	64 	: 	0.816000; 	65 	: 	1.116000; 	66 	: 	0.753000; 	
67 	: 	2.316000; 	68 	: 	1.164000; 	69 	: 	0.846000; 	70 	: 	0.894000; 	71 	: 	0.312000; 	
72 	: 	0.048000; 	73 	: 	0.852000; 	74 	: 	0.225000; 	75 	: 	1.647000; 	76 	: 	1.407000; 	
77 	: 	0.093000; 	78 	: 	5.994000; 	79 	: 	3.681000; 	80 	: 	2.127000; 	81 	: 	1.788000; 	
82 	: 	3.669000; 	83 	: 	0.498000; 	84 	: 	0.486000; 	85 	: 	1.089000; 	86 	: 	0.582000; 	
87 	: 	0.354000; 	88 	: 	0.525000; 	89 	: 	0.621000; 	90 	: 	0.426000; 	91 	: 	0.690000; 	
92 	: 	1.434000; 	93 	: 	0.303000; 	94 	: 	0.525000; 	95 	: 	0.117000; 	96 	: 	2.058000; 	
97 	: 	0.204000; 	98 	: 	0.138000; 	

Origin 6 
1 	: 	14.793000; 	2 	: 	2.457000; 	3 	: 	2.139000; 	4 	: 	4.401000; 	5 	: 	5.754000; 	
7 	: 	8.013000; 	8 	: 	8.325000; 	9 	: 	7.137000; 	10 	: 	3.066000; 	11 	: 	0.573000; 	
12 	: 	3.981000; 	13 	: 	1.359000; 	14 	: 	1.056000; 	15 	: 	4.926000; 	16 	: 	3.003000; 	
17 	: 	3.108000; 	18 	: 	2.601000; 	19 	: 	2.298000; 	20 	: 	2.973000; 	21 	: 	1.539000; 	
22 	: 	1.440000; 	23 	: 	0.672000; 	24 	: 	2.472000; 	25 	: 	1.470000; 	26 	: 	3.507000; 	
27 	: 	1.392000; 	28 	: 	3.798000; 	29 	: 	1.317000; 	30 	: 	2.346000; 	31 	: 	2.424000; 	
32 	: 	1.182000; 	33 	: 	1.158000; 	34 	: 	1.008000; 	35 	: 	2.556000; 	36 	: 	1.254000; 	
37 	: 	4.389000; 	38 	: 	3.042000; 	39 	: 	5.889000; 	40 	: 	7.134000; 	41 	: 	3.840000; 	
42 	: 	7.008000; 	43 	: 	2.616000; 	44 	: 	3.282000; 	45 	: 	0.837000; 	46 	: 	2.361000; 	
47 	: 	3.174000; 	48 	: 	1.962000; 	49 	: 	2.400000; 	50 	: 	6.582000; 	51 	: 	4.695000; 	
52 	: 	4.383000; 	53 	: 	0.861000; 	54 	: 	0.582000; 	55 	: 	1.047000; 	56 	: 	1.728000; 	
57 	: 	0.633000; 	58 	: 	1.032000; 	59 	: 	0.789000; 	60 	: 	0.906000; 	61 	: 	2.193000; 	
62 	: 	2.802000; 	63 	: 	1.458000; 	64 	: 	2.316000; 	65 	: 	2.289000; 	66 	: 	1.926000; 	
67 	: 	4.125000; 	68 	: 	3.804000; 	69 	: 	1.743000; 	70 	: 	4.176000; 	71 	: 	1.989000; 	
72 	: 	1.341000; 	73 	: 	3.180000; 	74 	: 	1.494000; 	75 	: 	4.452000; 	76 	: 	3.831000; 	
77 	: 	1.344000; 	78 	: 	4.959000; 	79 	: 	8.718000; 	80 	: 	2.763000; 	81 	: 	1.062000; 	
82 	: 	7.929000; 	83 	: 	1.062000; 	84 	: 	1.284000; 	85 	: 	2.367000; 	86 	: 	1.218000; 	
87 	: 	0.309000; 	88 	: 	1.746000; 	89 	: 	1.533000; 	90 	: 	1.419000; 	91 	: 	2.676000; 	
92 	: 	5.064000; 	93 	: 	0.444000; 	94 	: 	0.837000; 	95 	: 	1.125000; 	96 	: 	1.809000; 	
97 	: 	0.705000; 	98 	: 	0.165000; 	

Origin 7 
1 	: 	32.934000; 	2 	: 	4.752000; 	3 	: 	5.637000; 	4 	: 	12.192000; 	5 	: 	14.196000; 	
6 	: 	8.106000; 	8 	: 	18.375000; 	9 	: 	9.411000; 	10 	: 	6.939000; 	11 	: 	1.041000; 	
12 	: 	10.635000; 	13 	: 	2.973000; 	14 	: 	1.692000; 	15 	: 	8.982000; 	16 	: 	6.999000; 	
17 	: 	7.632000; 	18 	: 	5.067000; 	19 	: 	5.217000; 	20 	: 	7.272000; 	21 	: 	4.230000; 	
22 	: 	4.230000; 	23 	: 	0.996000; 	24 	: 	5.889000; 	25 	: 	3.498000; 	26 	: 	8.187000; 	
27 	: 	3.465000; 	28 	: 	9.255000; 	29 	: 	4.335000; 	30 	: 	6.051000; 	31 	: 	7.014000; 	
32 	: 	4.272000; 	33 	: 	3.846000; 	34 	: 	1.476000; 	35 	: 	7.170000; 	36 	: 	3.567000; 	
37 	: 	8.451000; 	38 	: 	3.723000; 	39 	: 	7.140000; 	40 	: 	14.520000; 	41 	: 	8.787000; 	
42 	: 	15.054000; 	43 	: 	6.606000; 	44 	: 	9.309000; 	45 	: 	0.792000; 	46 	: 	3.021000; 	
47 	: 	5.973000; 	48 	: 	3.996000; 	49 	: 	5.205000; 	50 	: 	9.921000; 	51 	: 	8.082000; 	
52 	: 	10.572000; 	53 	: 	1.983000; 	54 	: 	1.512000; 	55 	: 	2.706000; 	56 	: 	4.338000; 	
57 	: 	1.848000; 	58 	: 	2.892000; 	59 	: 	2.091000; 	60 	: 	2.121000; 	61 	: 	5.541000; 	
62 	: 	7.371000; 	63 	: 	3.684000; 	64 	: 	6.327000; 	65 	: 	6.021000; 	66 	: 	4.959000; 	
67 	: 	12.228000; 	68 	: 	9.099000; 	69 	: 	5.433000; 	70 	: 	11.436000; 	71 	: 	6.963000; 	
72 	: 	5.292000; 	73 	: 	10.740000; 	74 	: 	5.322000; 	75 	: 	11.646000; 	76 	: 	10.887000; 	
77 	: 	4.731000; 	78 	: 	7.686000; 	79 	: 	18.903000; 	80 	: 	5.334000; 	81 	: 	1.740000; 	
82 	: 	15.042000; 	83 	: 	2.658000; 	84 	: 	3.429000; 	85 	: 	6.399000; 	86 	: 	3.141000; 	
87 	: 	0.372000; 	88 	: 	4.236000; 	89 	: 	5.052000; 	90 	: 	5.739000; 	91 	: 	7.866000; 	
92 	: 	14.478000; 	93 	: 	0.789000; 	94 	: 	1.914000; 	95 	: 	3.363000; 	96 	: 	2.988000; 	
97 	: 	2.145000; 	98 	: 	0.216000; 	

Origin 8 
1 	: 	23.562000; 	2 	: 	4.860000; 	3 	: 	3.792000; 	4 	: 	6.516000; 	5 	: 	9.057000; 	
6 	: 	8.202000; 	7 	: 	18.102000; 	9 	: 	11.418000; 	10 	: 	4.062000; 	11 	: 	1.401000; 	
12 	: 	5.067000; 	13 	: 	2.040000; 	14 	: 	1.671000; 	15 	: 	6.954000; 	16 	: 	4.821000; 	
17 	: 	5.145000; 	18 	: 	4.404000; 	19 	: 	4.449000; 	20 	: 	5.217000; 	21 	: 	2.376000; 	
22 	: 	3.054000; 	23 	: 	1.800000; 	24 	: 	2.337000; 	25 	: 	2.055000; 	26 	: 	5.337000; 	
27 	: 	1.323000; 	28 	: 	5.565000; 	29 	: 	1.959000; 	30 	: 	3.672000; 	31 	: 	3.444000; 	
32 	: 	1.926000; 	33 	: 	1.923000; 	34 	: 	2.049000; 	35 	: 	3.777000; 	36 	: 	2.034000; 	
37 	: 	6.351000; 	38 	: 	5.601000; 	39 	: 	10.821000; 	40 	: 	9.897000; 	41 	: 	4.824000; 	
42 	: 	10.206000; 	43 	: 	3.366000; 	44 	: 	4.179000; 	45 	: 	1.548000; 	46 	: 	3.801000; 	
47 	: 	4.413000; 	48 	: 	3.810000; 	49 	: 	2.949000; 	50 	: 	9.144000; 	51 	: 	7.386000; 	
52 	: 	6.693000; 	53 	: 	1.473000; 	54 	: 	0.975000; 	55 	: 	2.022000; 	56 	: 	3.360000; 	
57 	: 	1.017000; 	58 	: 	1.731000; 	59 	: 	1.209000; 	60 	: 	0.936000; 	61 	: 	3.192000; 	
62 	: 	4.344000; 	63 	: 	1.620000; 	64 	: 	3.615000; 	65 	: 	3.495000; 	66 	: 	2.997000; 	
67 	: 	5.172000; 	68 	: 	5.367000; 	69 	: 	2.436000; 	70 	: 	6.672000; 	71 	: 	2.724000; 	
72 	: 	2.223000; 	73 	: 	5.112000; 	74 	: 	1.950000; 	75 	: 	5.442000; 	76 	: 	5.412000; 	
77 	: 	1.923000; 	78 	: 	7.872000; 	79 	: 	12.396000; 	80 	: 	3.783000; 	81 	: 	2.793000; 	
82 	: 	11.214000; 	83 	: 	1.776000; 	84 	: 	2.193000; 	85 	: 	4.212000; 	86 	: 	1.434000; 	
87 	: 	0.726000; 	88 	: 	2.649000; 	89 	: 	2.331000; 	90 	: 	2.346000; 	91 	: 	3.435000; 	
92 	: 	6.450000; 	93 	: 	0.816000; 	94 	: 	1.302000; 	95 	: 	1.872000; 	96 	: 	3.141000; 	
97 	: 	1.407000; 	98 	: 	0.465000; 	

Origin 9 
1 	: 	30.810000; 	2 	: 	3.633000; 	3 	: 	4.602000; 	4 	: 	9.513000; 	5 	: 	12.216000; 	
6 	: 	7.242000; 	7 	: 	9.486000; 	8 	: 	11.622000; 	10 	: 	5.220000; 	11 	: 	1.041000; 	
12 	: 	8.751000; 	13 	: 	3.516000; 	14 	: 	1.731000; 	15 	: 	8.001000; 	16 	: 	7.713000; 	
17 	: 	8.340000; 	18 	: 	6.696000; 	19 	: 	6.936000; 	20 	: 	8.634000; 	21 	: 	4.350000; 	
22 	: 	5.319000; 	23 	: 	0.843000; 	24 	: 	4.290000; 	25 	: 	3.444000; 	26 	: 	7.968000; 	
27 	: 	2.133000; 	28 	: 	8.370000; 	29 	: 	4.044000; 	30 	: 	5.976000; 	31 	: 	5.994000; 	
32 	: 	3.927000; 	33 	: 	3.378000; 	34 	: 	0.939000; 	35 	: 	6.219000; 	36 	: 	2.478000; 	
37 	: 	6.486000; 	38 	: 	2.655000; 	39 	: 	4.737000; 	40 	: 	12.621000; 	41 	: 	7.629000; 	
42 	: 	13.881000; 	43 	: 	5.154000; 	44 	: 	6.678000; 	45 	: 	0.459000; 	46 	: 	1.782000; 	
47 	: 	4.209000; 	48 	: 	3.204000; 	49 	: 	4.806000; 	50 	: 	6.387000; 	51 	: 	5.757000; 	
52 	: 	11.418000; 	53 	: 	2.079000; 	54 	: 	1.623000; 	55 	: 	3.423000; 	56 	: 	5.313000; 	
57 	: 	1.836000; 	58 	: 	2.943000; 	59 	: 	2.073000; 	60 	: 	1.284000; 	61 	: 	5.532000; 	
62 	: 	7.401000; 	63 	: 	2.748000; 	64 	: 	6.258000; 	65 	: 	6.054000; 	66 	: 	4.995000; 	
67 	: 	8.727000; 	68 	: 	7.899000; 	69 	: 	4.746000; 	70 	: 	10.896000; 	71 	: 	6.174000; 	
72 	: 	4.965000; 	73 	: 	9.222000; 	74 	: 	4.404000; 	75 	: 	9.261000; 	76 	: 	10.041000; 	
77 	: 	3.840000; 	78 	: 	6.231000; 	79 	: 	16.254000; 	80 	: 	4.947000; 	81 	: 	1.251000; 	
82 	: 	14.292000; 	83 	: 	3.030000; 	84 	: 	3.708000; 	85 	: 	7.428000; 	86 	: 	2.703000; 	
87 	: 	0.267000; 	88 	: 	3.927000; 	89 	: 	4.608000; 	90 	: 	5.484000; 	91 	: 	6.477000; 	
92 	: 	12.189000; 	93 	: 	0.546000; 	94 	: 	1.956000; 	95 	: 	3.306000; 	96 	: 	2.541000; 	
97 	: 	2.553000; 	98 	: 	0.156000; 	

Origin 10 
1 	: 	4.830000; 	2 	: 	1.215000; 	3 	: 	1.203000; 	4 	: 	2.691000; 	5 	: 	2.448000; 	
6 	: 	2.838000; 	7 	: 	5.439000; 	8 	: 	4.299000; 	9 	: 	3.990000; 	11 	: 	7.686000; 	
12 	: 	38.232000; 	13 	: 	8.667000; 	14 	: 	11.430000; 	15 	: 	2.397000; 	16 	: 	2.520000; 	
17 	: 	2.682000; 	18 	: 	1.311000; 	19 	: 	1.560000; 	20 	: 	2.184000; 	21 	: 	1.272000; 	
22 	: 	1.254000; 	23 	: 	0.765000; 	24 	: 	2.550000; 	25 	: 	1.827000; 	26 	: 	3.210000; 	
27 	: 	2.391000; 	28 	: 	4.383000; 	29 	: 	1.557000; 	30 	: 	1.941000; 	31 	: 	2.718000; 	
32 	: 	1.422000; 	33 	: 	1.470000; 	34 	: 	1.500000; 	35 	: 	3.678000; 	36 	: 	1.803000; 	
37 	: 	2.070000; 	38 	: 	1.263000; 	39 	: 	2.730000; 	40 	: 	2.625000; 	41 	: 	1.413000; 	
42 	: 	2.349000; 	43 	: 	1.158000; 	44 	: 	1.662000; 	45 	: 	13.020000; 	46 	: 	34.137000; 	
47 	: 	40.518000; 	48 	: 	21.273000; 	49 	: 	16.950000; 	50 	: 	2.634000; 	51 	: 	1.947000; 	
52 	: 	2.829000; 	53 	: 	0.600000; 	54 	: 	0.501000; 	55 	: 	0.681000; 	56 	: 	1.554000; 	
57 	: 	0.570000; 	58 	: 	1.239000; 	59 	: 	0.891000; 	60 	: 	1.065000; 	61 	: 	1.842000; 	
62 	: 	3.048000; 	63 	: 	1.653000; 	64 	: 	3.306000; 	65 	: 	2.214000; 	66 	: 	2.649000; 	
67 	: 	5.544000; 	68 	: 	4.371000; 	69 	: 	2.421000; 	70 	: 	3.942000; 	71 	: 	2.175000; 	
72 	: 	1.503000; 	73 	: 	4.224000; 	74 	: 	1.866000; 	75 	: 	6.042000; 	76 	: 	5.283000; 	
77 	: 	2.097000; 	78 	: 	1.899000; 	79 	: 	3.279000; 	80 	: 	0.927000; 	81 	: 	21.861000; 	
82 	: 	3.201000; 	83 	: 	0.612000; 	84 	: 	1.437000; 	85 	: 	1.611000; 	86 	: 	1.518000; 	
87 	: 	0.414000; 	88 	: 	1.932000; 	89 	: 	1.956000; 	90 	: 	1.683000; 	91 	: 	3.513000; 	
92 	: 	6.282000; 	93 	: 	0.594000; 	94 	: 	0.645000; 	95 	: 	0.900000; 	96 	: 	0.693000; 	
97 	: 	0.642000; 	98 	: 	0.234000; 	

Origin 11 
1 	: 	2.643000; 	2 	: 	0.399000; 	3 	: 	0.450000; 	4 	: 	1.041000; 	5 	: 	1.245000; 	
6 	: 	0.648000; 	7 	: 	1.032000; 	8 	: 	1.734000; 	9 	: 	0.969000; 	10 	: 	6.951000; 	
12 	: 	14.715000; 	13 	: 	3.216000; 	14 	: 	2.571000; 	15 	: 	0.978000; 	16 	: 	1.725000; 	
17 	: 	1.869000; 	18 	: 	1.182000; 	19 	: 	1.182000; 	20 	: 	1.563000; 	21 	: 	0.942000; 	
22 	: 	1.116000; 	23 	: 	0.219000; 	24 	: 	1.419000; 	25 	: 	0.933000; 	26 	: 	1.917000; 	
27 	: 	1.335000; 	28 	: 	2.406000; 	29 	: 	0.846000; 	30 	: 	1.545000; 	31 	: 	1.704000; 	
32 	: 	0.765000; 	33 	: 	0.714000; 	34 	: 	0.297000; 	35 	: 	1.647000; 	36 	: 	0.759000; 	
37 	: 	0.768000; 	38 	: 	0.312000; 	39 	: 	0.609000; 	40 	: 	1.182000; 	41 	: 	0.732000; 	
42 	: 	1.233000; 	43 	: 	0.528000; 	44 	: 	0.867000; 	45 	: 	2.049000; 	46 	: 	6.696000; 	
47 	: 	10.557000; 	48 	: 	5.010000; 	49 	: 	6.741000; 	50 	: 	0.903000; 	51 	: 	0.729000; 	
52 	: 	2.256000; 	53 	: 	0.420000; 	54 	: 	0.342000; 	55 	: 	0.555000; 	56 	: 	1.227000; 	
57 	: 	0.402000; 	58 	: 	0.870000; 	59 	: 	0.534000; 	60 	: 	0.504000; 	61 	: 	1.236000; 	
62 	: 	1.839000; 	63 	: 	0.975000; 	64 	: 	2.121000; 	65 	: 	1.494000; 	66 	: 	1.692000; 	
67 	: 	2.658000; 	68 	: 	2.682000; 	69 	: 	1.149000; 	70 	: 	2.826000; 	71 	: 	1.473000; 	
72 	: 	0.912000; 	73 	: 	2.079000; 	74 	: 	1.164000; 	75 	: 	3.324000; 	76 	: 	2.544000; 	
77 	: 	0.909000; 	78 	: 	0.675000; 	79 	: 	1.659000; 	80 	: 	0.471000; 	81 	: 	2.994000; 	
82 	: 	1.656000; 	83 	: 	0.510000; 	84 	: 	1.053000; 	85 	: 	1.269000; 	86 	: 	0.828000; 	
87 	: 	0.096000; 	88 	: 	1.191000; 	89 	: 	1.002000; 	90 	: 	0.948000; 	91 	: 	2.091000; 	
92 	: 	3.846000; 	93 	: 	0.180000; 	94 	: 	0.447000; 	95 	: 	0.723000; 	96 	: 	0.255000; 	
97 	: 	0.567000; 	98 	: 	0.048000; 	

Origin 12 
1 	: 	3.660000; 	2 	: 	1.188000; 	3 	: 	1.065000; 	4 	: 	2.373000; 	5 	: 	1.701000; 	
6 	: 	3.231000; 	7 	: 	7.620000; 	8 	: 	4.413000; 	9 	: 	6.015000; 	10 	: 	41.535000; 	
11 	: 	16.050000; 	13 	: 	12.186000; 	14 	: 	12.603000; 	15 	: 	2.124000; 	16 	: 	1.083000; 	
17 	: 	1.410000; 	18 	: 	0.936000; 	19 	: 	0.693000; 	20 	: 	1.209000; 	21 	: 	2.094000; 	
22 	: 	2.013000; 	23 	: 	2.352000; 	24 	: 	2.796000; 	25 	: 	1.152000; 	26 	: 	3.501000; 	
27 	: 	2.046000; 	28 	: 	5.787000; 	29 	: 	3.045000; 	30 	: 	2.475000; 	31 	: 	4.668000; 	
32 	: 	3.042000; 	33 	: 	4.269000; 	34 	: 	3.417000; 	35 	: 	5.157000; 	36 	: 	4.878000; 	
37 	: 	1.485000; 	38 	: 	1.215000; 	39 	: 	2.562000; 	40 	: 	1.968000; 	41 	: 	1.137000; 	
42 	: 	1.497000; 	43 	: 	0.921000; 	44 	: 	1.371000; 	45 	: 	15.813000; 	46 	: 	48.834000; 	
47 	: 	37.503000; 	48 	: 	37.719000; 	49 	: 	13.854000; 	50 	: 	3.591000; 	51 	: 	2.730000; 	
52 	: 	3.432000; 	53 	: 	0.984000; 	54 	: 	0.408000; 	55 	: 	0.510000; 	56 	: 	2.097000; 	
57 	: 	1.155000; 	58 	: 	1.863000; 	59 	: 	0.459000; 	60 	: 	1.425000; 	61 	: 	2.232000; 	
62 	: 	1.998000; 	63 	: 	1.890000; 	64 	: 	3.780000; 	65 	: 	3.150000; 	66 	: 	2.700000; 	
67 	: 	7.791000; 	68 	: 	3.867000; 	69 	: 	3.990000; 	70 	: 	5.607000; 	71 	: 	4.716000; 	
72 	: 	4.587000; 	73 	: 	9.168000; 	74 	: 	3.717000; 	75 	: 	4.830000; 	76 	: 	5.949000; 	
77 	: 	5.223000; 	78 	: 	1.155000; 	79 	: 	2.160000; 	80 	: 	0.417000; 	81 	: 	30.645000; 	
82 	: 	2.547000; 	83 	: 	0.903000; 	84 	: 	1.911000; 	85 	: 	2.751000; 	86 	: 	0.888000; 	
87 	: 	0.834000; 	88 	: 	2.076000; 	89 	: 	4.080000; 	90 	: 	5.181000; 	91 	: 	4.845000; 	
92 	: 	7.719000; 	93 	: 	1.248000; 	94 	: 	0.618000; 	95 	: 	2.184000; 	96 	: 	0.471000; 	
97 	: 	1.284000; 	98 	: 	0.930000; 	

Origin 13 
1 	: 	1.296000; 	2 	: 	0.522000; 	3 	: 	0.426000; 	4 	: 	0.861000; 	5 	: 	0.573000; 	
6 	: 	0.990000; 	7 	: 	2.067000; 	8 	: 	1.620000; 	9 	: 	2.466000; 	10 	: 	9.933000; 	
11 	: 	3.810000; 	12 	: 	12.606000; 	14 	: 	3.894000; 	15 	: 	0.513000; 	16 	: 	0.807000; 	
17 	: 	0.981000; 	18 	: 	0.234000; 	19 	: 	0.597000; 	20 	: 	0.765000; 	21 	: 	0.300000; 	
22 	: 	0.843000; 	23 	: 	0.852000; 	24 	: 	0.468000; 	25 	: 	0.648000; 	26 	: 	0.684000; 	
27 	: 	0.852000; 	28 	: 	1.281000; 	29 	: 	0.336000; 	30 	: 	1.200000; 	31 	: 	1.146000; 	
32 	: 	0.543000; 	33 	: 	0.708000; 	34 	: 	1.095000; 	35 	: 	1.191000; 	36 	: 	1.230000; 	
37 	: 	0.687000; 	38 	: 	0.657000; 	39 	: 	1.458000; 	40 	: 	0.774000; 	41 	: 	0.405000; 	
42 	: 	0.558000; 	43 	: 	0.324000; 	44 	: 	0.441000; 	45 	: 	7.809000; 	46 	: 	21.918000; 	
47 	: 	19.584000; 	48 	: 	15.255000; 	49 	: 	5.811000; 	50 	: 	1.380000; 	51 	: 	0.993000; 	
52 	: 	0.495000; 	53 	: 	0.225000; 	54 	: 	0.216000; 	55 	: 	0.294000; 	56 	: 	0.924000; 	
57 	: 	0.177000; 	58 	: 	0.687000; 	59 	: 	0.264000; 	60 	: 	0.357000; 	61 	: 	0.282000; 	
62 	: 	1.071000; 	63 	: 	0.330000; 	64 	: 	1.488000; 	65 	: 	0.525000; 	66 	: 	1.149000; 	
67 	: 	1.029000; 	68 	: 	2.001000; 	69 	: 	0.489000; 	70 	: 	2.499000; 	71 	: 	0.891000; 	
72 	: 	0.678000; 	73 	: 	1.797000; 	74 	: 	0.708000; 	75 	: 	1.794000; 	76 	: 	1.392000; 	
77 	: 	0.831000; 	78 	: 	0.669000; 	79 	: 	0.777000; 	80 	: 	0.189000; 	81 	: 	14.859000; 	
82 	: 	0.630000; 	83 	: 	0.129000; 	84 	: 	0.792000; 	85 	: 	0.456000; 	86 	: 	0.474000; 	
87 	: 	0.363000; 	88 	: 	1.014000; 	89 	: 	0.501000; 	90 	: 	0.489000; 	91 	: 	1.125000; 	
92 	: 	1.851000; 	93 	: 	0.423000; 	94 	: 	0.141000; 	95 	: 	0.771000; 	96 	: 	0.300000; 	
97 	: 	0.462000; 	98 	: 	0.306000; 	

Origin 14 
1 	: 	2.331000; 	2 	: 	0.399000; 	3 	: 	0.483000; 	4 	: 	1.146000; 	5 	: 	1.065000; 	
6 	: 	1.083000; 	7 	: 	1.479000; 	8 	: 	1.923000; 	9 	: 	1.446000; 	10 	: 	10.797000; 	
11 	: 	2.712000; 	12 	: 	11.712000; 	13 	: 	3.318000; 	15 	: 	0.837000; 	16 	: 	1.368000; 	
17 	: 	1.719000; 	18 	: 	0.822000; 	19 	: 	1.065000; 	20 	: 	1.524000; 	21 	: 	1.131000; 	
22 	: 	1.536000; 	23 	: 	0.480000; 	24 	: 	1.344000; 	25 	: 	0.933000; 	26 	: 	1.758000; 	
27 	: 	1.437000; 	28 	: 	2.610000; 	29 	: 	1.092000; 	30 	: 	2.262000; 	31 	: 	2.487000; 	
32 	: 	1.449000; 	33 	: 	1.620000; 	34 	: 	0.600000; 	35 	: 	2.280000; 	36 	: 	1.566000; 	
37 	: 	0.687000; 	38 	: 	0.330000; 	39 	: 	0.660000; 	40 	: 	1.071000; 	41 	: 	0.666000; 	
42 	: 	1.026000; 	43 	: 	0.501000; 	44 	: 	0.810000; 	45 	: 	2.838000; 	46 	: 	9.126000; 	
47 	: 	11.370000; 	48 	: 	9.960000; 	49 	: 	6.807000; 	50 	: 	1.110000; 	51 	: 	0.846000; 	
52 	: 	2.112000; 	53 	: 	0.441000; 	54 	: 	0.402000; 	55 	: 	0.618000; 	56 	: 	1.443000; 	
57 	: 	0.552000; 	58 	: 	1.191000; 	59 	: 	0.531000; 	60 	: 	0.531000; 	61 	: 	1.203000; 	
62 	: 	1.974000; 	63 	: 	0.969000; 	64 	: 	2.562000; 	65 	: 	1.644000; 	66 	: 	1.929000; 	
67 	: 	2.886000; 	68 	: 	3.273000; 	69 	: 	1.395000; 	70 	: 	4.515000; 	71 	: 	2.778000; 	
72 	: 	2.007000; 	73 	: 	3.846000; 	74 	: 	2.091000; 	75 	: 	2.985000; 	76 	: 	2.901000; 	
77 	: 	2.040000; 	78 	: 	0.504000; 	79 	: 	1.374000; 	80 	: 	0.309000; 	81 	: 	6.324000; 	
82 	: 	1.155000; 	83 	: 	0.510000; 	84 	: 	1.341000; 	85 	: 	1.608000; 	86 	: 	0.855000; 	
87 	: 	0.180000; 	88 	: 	1.620000; 	89 	: 	1.371000; 	90 	: 	1.698000; 	91 	: 	2.781000; 	
92 	: 	4.776000; 	93 	: 	0.306000; 	94 	: 	0.363000; 	95 	: 	1.545000; 	96 	: 	0.222000; 	
97 	: 	0.888000; 	98 	: 	0.150000; 	

Origin 15 
1 	: 	8.256000; 	2 	: 	2.310000; 	3 	: 	2.010000; 	4 	: 	4.395000; 	5 	: 	3.285000; 	
6 	: 	4.812000; 	7 	: 	8.814000; 	8 	: 	6.894000; 	9 	: 	7.836000; 	10 	: 	2.097000; 	
11 	: 	0.759000; 	12 	: 	1.881000; 	13 	: 	0.654000; 	14 	: 	0.687000; 	16 	: 	1.236000; 	
17 	: 	1.419000; 	18 	: 	0.879000; 	19 	: 	0.975000; 	20 	: 	1.359000; 	21 	: 	0.840000; 	
22 	: 	0.972000; 	23 	: 	1.158000; 	24 	: 	1.152000; 	25 	: 	0.789000; 	26 	: 	1.677000; 	
27 	: 	0.555000; 	28 	: 	2.286000; 	29 	: 	0.861000; 	30 	: 	1.401000; 	31 	: 	2.034000; 	
32 	: 	0.834000; 	33 	: 	1.176000; 	34 	: 	1.575000; 	35 	: 	1.614000; 	36 	: 	1.965000; 	
37 	: 	2.748000; 	38 	: 	2.700000; 	39 	: 	5.502000; 	40 	: 	3.948000; 	41 	: 	2.301000; 	
42 	: 	3.309000; 	43 	: 	1.782000; 	44 	: 	2.607000; 	45 	: 	0.894000; 	46 	: 	2.334000; 	
47 	: 	2.082000; 	48 	: 	2.019000; 	49 	: 	1.116000; 	50 	: 	4.383000; 	51 	: 	2.889000; 	
52 	: 	1.908000; 	53 	: 	0.522000; 	54 	: 	0.324000; 	55 	: 	0.543000; 	56 	: 	1.065000; 	
57 	: 	0.423000; 	58 	: 	0.654000; 	59 	: 	0.354000; 	60 	: 	0.582000; 	61 	: 	0.981000; 	
62 	: 	1.431000; 	63 	: 	0.717000; 	64 	: 	1.284000; 	65 	: 	1.239000; 	66 	: 	0.999000; 	
67 	: 	1.962000; 	68 	: 	1.767000; 	69 	: 	1.095000; 	70 	: 	2.919000; 	71 	: 	1.806000; 	
72 	: 	1.146000; 	73 	: 	2.640000; 	74 	: 	1.335000; 	75 	: 	2.343000; 	76 	: 	1.461000; 	
77 	: 	1.242000; 	78 	: 	3.006000; 	79 	: 	4.437000; 	80 	: 	1.080000; 	81 	: 	1.677000; 	
82 	: 	2.940000; 	83 	: 	0.510000; 	84 	: 	0.765000; 	85 	: 	1.416000; 	86 	: 	0.591000; 	
87 	: 	0.459000; 	88 	: 	1.119000; 	89 	: 	1.125000; 	90 	: 	1.341000; 	91 	: 	1.923000; 	
92 	: 	3.216000; 	93 	: 	0.642000; 	94 	: 	0.369000; 	95 	: 	1.062000; 	96 	: 	1.251000; 	
97 	: 	0.540000; 	98 	: 	0.375000; 	

Origin 16 
1 	: 	6.867000; 	2 	: 	1.392000; 	3 	: 	1.116000; 	4 	: 	2.319000; 	5 	: 	1.956000; 	
6 	: 	2.607000; 	7 	: 	5.439000; 	8 	: 	4.305000; 	9 	: 	5.847000; 	10 	: 	1.839000; 	
11 	: 	1.353000; 	12 	: 	1.530000; 	13 	: 	0.450000; 	14 	: 	1.020000; 	15 	: 	1.260000; 	
17 	: 	16.683000; 	18 	: 	22.677000; 	19 	: 	20.262000; 	20 	: 	22.299000; 	21 	: 	1.044000; 	
22 	: 	2.274000; 	23 	: 	1.971000; 	24 	: 	12.048000; 	25 	: 	8.772000; 	26 	: 	20.880000; 	
27 	: 	0.927000; 	28 	: 	3.237000; 	29 	: 	0.708000; 	30 	: 	1.296000; 	31 	: 	0.513000; 	
32 	: 	0.135000; 	33 	: 	0.036000; 	34 	: 	0.708000; 	35 	: 	0.723000; 	36 	: 	0.057000; 	
37 	: 	1.410000; 	38 	: 	2.193000; 	39 	: 	3.738000; 	40 	: 	2.697000; 	41 	: 	1.569000; 	
42 	: 	2.727000; 	43 	: 	1.116000; 	44 	: 	1.404000; 	45 	: 	2.190000; 	46 	: 	2.853000; 	
47 	: 	3.006000; 	48 	: 	3.405000; 	49 	: 	1.029000; 	50 	: 	3.045000; 	51 	: 	1.875000; 	
52 	: 	28.293000; 	53 	: 	7.464000; 	54 	: 	3.426000; 	55 	: 	9.099000; 	56 	: 	3.078000; 	
57 	: 	0.378000; 	58 	: 	0.939000; 	59 	: 	3.822000; 	60 	: 	5.754000; 	61 	: 	12.246000; 	
62 	: 	14.307000; 	63 	: 	0.939000; 	64 	: 	1.995000; 	65 	: 	1.659000; 	66 	: 	1.917000; 	
67 	: 	2.775000; 	68 	: 	2.187000; 	69 	: 	0.846000; 	70 	: 	1.851000; 	71 	: 	0.066000; 	
72 	: 	0.021000; 	73 	: 	0.300000; 	74 	: 	0.012000; 	75 	: 	0.813000; 	76 	: 	0.870000; 	
77 	: 	0.030000; 	78 	: 	3.078000; 	79 	: 	2.970000; 	80 	: 	1.197000; 	81 	: 	4.293000; 	
82 	: 	1.380000; 	83 	: 	8.607000; 	84 	: 	1.524000; 	85 	: 	2.394000; 	86 	: 	5.619000; 	
87 	: 	0.945000; 	88 	: 	1.035000; 	89 	: 	0.735000; 	90 	: 	0.483000; 	91 	: 	0.300000; 	
92 	: 	0.681000; 	93 	: 	0.309000; 	94 	: 	4.356000; 	95 	: 	0.219000; 	96 	: 	1.215000; 	
97 	: 	0.771000; 	98 	: 	0.318000; 	

Origin 17 
1 	: 	6.717000; 	2 	: 	1.353000; 	3 	: 	1.101000; 	4 	: 	2.403000; 	5 	: 	1.941000; 	
6 	: 	2.733000; 	7 	: 	5.964000; 	8 	: 	4.683000; 	9 	: 	6.345000; 	10 	: 	1.977000; 	
11 	: 	1.464000; 	12 	: 	1.992000; 	13 	: 	0.579000; 	14 	: 	1.287000; 	15 	: 	1.482000; 	
16 	: 	16.893000; 	18 	: 	29.340000; 	19 	: 	20.298000; 	20 	: 	17.919000; 	21 	: 	1.347000; 	
22 	: 	2.928000; 	23 	: 	2.571000; 	24 	: 	12.579000; 	25 	: 	8.133000; 	26 	: 	18.630000; 	
27 	: 	1.056000; 	28 	: 	3.735000; 	29 	: 	1.086000; 	30 	: 	2.088000; 	31 	: 	0.978000; 	
32 	: 	0.300000; 	33 	: 	0.192000; 	34 	: 	1.176000; 	35 	: 	0.963000; 	36 	: 	0.225000; 	
37 	: 	1.275000; 	38 	: 	1.929000; 	39 	: 	3.225000; 	40 	: 	2.652000; 	41 	: 	1.602000; 	
42 	: 	2.694000; 	43 	: 	1.140000; 	44 	: 	1.500000; 	45 	: 	1.953000; 	46 	: 	2.730000; 	
47 	: 	2.907000; 	48 	: 	3.513000; 	49 	: 	1.176000; 	50 	: 	3.447000; 	51 	: 	2.217000; 	
52 	: 	19.830000; 	53 	: 	6.867000; 	54 	: 	4.032000; 	55 	: 	10.404000; 	56 	: 	3.624000; 	
57 	: 	0.558000; 	58 	: 	1.260000; 	59 	: 	3.249000; 	60 	: 	6.144000; 	61 	: 	11.088000; 	
62 	: 	15.279000; 	63 	: 	1.068000; 	64 	: 	2.412000; 	65 	: 	1.998000; 	66 	: 	2.220000; 	
67 	: 	3.357000; 	68 	: 	2.868000; 	69 	: 	1.206000; 	70 	: 	3.126000; 	71 	: 	0.408000; 	
72 	: 	0.243000; 	73 	: 	0.996000; 	74 	: 	0.240000; 	75 	: 	1.347000; 	76 	: 	1.056000; 	
77 	: 	0.027000; 	78 	: 	2.547000; 	79 	: 	2.826000; 	80 	: 	1.059000; 	81 	: 	4.215000; 	