<NUMBER OF ZONES>  898
<NUMBER OF NODES>  14639
<FIRST THRU NODE>  899
<NUMBER OF LINKS>  33937
<END OF METADATA>

~from       to        capacity       Length       Free Flow Time       B       Power       speed limit       Toll       Type       ;
1       6595       999999       21.784       0.22004040404       1       3       99       0       9       ;
2       5983       999999       2.579       0.0260505050505       1       3       99       0       9       ;
3       6196       999999       11.426       0.115414141414       1       3       99       0       0       ;
3       6236       999999       6.142       0.0620404040404       1       3       99       0       9       ;
4       5352       999999       8.233       0.0831616161616       1       3       99       0       9       ;
4       6066       999999       19.021       0.192131313131       1       3       99       0       9       ;
5       6147       999999       13.044       0.131757575758       1       3       99       0       9       ;
6       6223       999999       6.054       0.0611515151515       1       3       99       0       9       ;
7       6331       999999       9.339       0.0943333333333       1       3       99       0       0       ;
8       6400       999999       56.952       0.575272727273       1       3       99       0       0       ;
9       6638       999999       22.948       0.231797979798       1       3       99       0       9       ;
10       6577       999999       3.942       0.0398181818182       1       3       99       0       9       ;
11       6605       999999       8.265       0.0834848484848       1       3       99       0       9       ;
12       6076       999999       3.669       0.0370606060606       1       3       99       0       9       ;
13       5332       999999       2.495       0.025202020202       1       3       99       0       9       ;
14       5883       999999       7.766       0.0784444444444       1       3       99       0       9       ;
15       1468       999999       6.539       0.0660505050505       1       3       99       0       9       ;
15       1541       999999       70.255       0.709646464646       1       3       99       0       0       ;
16       1265       999999       3.936       0.0397575757576       1       3       99       0       9       ;
17       1509       999999       10.352       0.104565656566       1       3       99       0       9       ;
17       1845       999999       21.044       0.212565656566       1       3       99       0       9       ;
18       1855       999999       0.816       0.00824242424242       1       3       99       0       9       ;
19       914       999999       201.948       2.03987878788       1       3       99       0       9       ;
20       6080       999999       3.56       0.0359595959596       1       3       99       0       9       ;
21       6627       999999       6.679       0.0674646464646       1       3       99       0       9       ;
22       6314       999999       8.781       0.088696969697       1       3       99       0       9       ;
23       6124       999999       2.038       0.0205858585859       1       3       99       0       9       ;
24       955       999999       27.655       0.279343434343       1       3       99       0       9       ;
25       2220       999999       4.294       0.0433737373737       1       3       99       0       9       ;
26       2419       999999       1.046       0.0105656565657       1       3       99       0       9       ;
27       1315       999999       2.385       0.0240909090909       1       3       99       0       9       ;
28       1103       999999       4.171       0.0421313131313       1       3       99       0       9       ;
29       918       999999       7.017       0.0708787878788       1       3       99       0       9       ;
30       1109       999999       6.562       0.0662828282828       1       3       99       0       9       ;
31       1023       999999       13.29       0.134242424242       1       3       99       0       9       ;
32       1118       999999       4.931       0.0498080808081       1       3       99       0       9       ;
33       911       999999       5.705       0.0576262626263       1       3       99       0       9       ;
34       1061       999999       13.902       0.140424242424       1       3       99       0       9       ;
35       6825       999999       0.324       0.00327272727273       1       3       99       0       3       ;
36       14458       999999       0.190001737776       0.00191920947248       1       3       99       0       0       ;
37       3985       999999       0.238318341202       0.00240725597173       1       3       99       0       0       ;
37       7034       999999       0.140007575861       0.00141421793799       1       3       99       0       0       ;
38       6895       999999       0.216       0.00218181818182       1       3       99       0       3       ;
39       6872       999999       0.238       0.00240404040404       1       3       99       0       3       ;
40       4016       999999       0.548349490134       0.00553888373872       1       3       99       0       0       ;
40       14459       999999       0.249997458616       0.00252522685471       1       3       99       0       0       ;
41       4115       999999       0.624       0.00630303030303       1       3       99       0       0       ;
41       7030       999999       0.683       0.00689898989899       1       3       99       0       0       ;
42       4071       999999       0.111       0.00112121212121       1       3       99       0       3       ;
42       14457       999999       0.213605228344       0.00215762856913       1       3       99       0       0       ;
43       4162       999999       0.452       0.00456565656566       1       3       99       0       0       ;
44       7529       999999       0.475       0.00479797979798       1       3       99       0       0       ;
44       14469       999999       0.595617172995       0.00601633508076       1       3       99       0       0       ;
45       6854       999999       0.043       0.000434343434343       1       3       99       0       3       ;
46       3885       999999       0.254       0.00256565656566       1       3       99       0       3       ;
47       8686       999999       0.501997139912       0.00507067818093       1       3       99       0       0       ;
48       3671       999999       0.187       0.00188888888889       1       3       99       0       3       ;
49       3537       999999       0.213       0.00215151515152       1       3       99       0       3       ;
50       3710       999999       0.265       0.00267676767677       1       3       99       0       3       ;
51       3971       999999       0.049       0.000494949494949       1       3       99       0       3       ;
52       4049       999999       0.631826860089       0.00638208949585       1       3       99       0       0       ;
52       4102       999999       0.353431682125       0.00357001699116       1       3       99       0       0       ;
53       4151       999999       0.027       0.000272727272727       1       3       99       0       3       ;
54       4166       999999       0.496       0.0050101010101       1       3       99       0       3       ;
55       3993       999999       0.241       0.00243434343434       1       3       99       0       3       ;
55       4059       999999       0.483900084656       0.00488787964299       1       3       99       0       0       ;
56       4164       999999       0.278393791561       0.00281205850062       1       3       99       0       0       ;
57       4064       999999       0.233       0.00235353535354       1       3       99       0       3       ;
58       4267       999999       0.085       0.000858585858586       1       3       99       0       3       ;
59       3912       999999       0.472       0.00476767676768       1       3       99       0       3       ;
60       3887       999999       0.051       0.000515151515152       1       3       99       0       3       ;
61       3747       999999       1.0802591518       0.0109117086041       1       3       99       0       0       ;
61       3857       999999       0.042       0.000424242424242       1       3       99       0       3       ;
61       6945       999999       1.08991317207       0.0110092239603       1       3       99       0       0       ;
62       3791       999999       0.201       0.0020303030303       1       3       99       0       3       ;
63       8252       999999       0.064       0.000646464646465       1       3       99       0       3       ;
64       3612       999999       0.365       0.00368686868687       1       3       99       0       3       ;
65       3545       999999       0.323       0.00326262626263       1       3       99       0       3       ;
66       3464       999999       0.559       0.00564646464646       1       3       99       0       3       ;
67       3994       999999       0.183       0.00184848484848       1       3       99       0       3       ;
68       4073       999999       0.437221166636       0.00441637542057       1       3       99       0       0       ;
68       4148       999999       0.560441245424       0.00566102268105       1       3       99       0       0       ;
69       8068       999999       0.492753939926       0.0049773125245       1       3       99       0       0       ;
69       14456       999999       0.0617571412245       0.000623809507318       1       3       99       0       0       ;
70       14455       999999       0.588431257026       0.00594375007097       1       3       99       0       0       ;
71       7999       999999       0.11       0.00111111111111       1       3       99       0       3       ;
72       3647       999999       0.253       0.00255555555556       1       3       99       0       3       ;
73       8317       999999       0.33       0.00333333333333       1       3       99       0       3       ;
74       4346       999999       0.415544152045       0.00419741567722       1       3       99       0       0       ;
75       7627       999999       0.546       0.00551515151515       1       3       99       0       3       ;
76       8318       999999       0.425       0.00429292929293       1       3       99       0       3       ;
77       14475       999999       0.445643748784       0.00450145200792       1       3       99       0       0       ;
78       7365       999999       0.096       0.000969696969697       1       3       99       0       3       ;
79       8295       999999       0.262       0.00264646464646       1       3       99       0       3       ;
80       4621       999999       0.205       0.00207070707071       1       3       99       0       3       ;
81       4499       999999       0.275       0.00277777777778       1       3       99       0       3       ;
82       8281       999999       0.381       0.00384848484848       1       3       99       0       3       ;
83       8281       999999       0.212       0.00214141414141       1       3       99       0       3       ;
84       8304       999999       0.226       0.00228282828283       1       3       99       0       3       ;
85       7355       999999       0.119       0.00120202020202       1       3       99       0       3       ;
86       8288       999999       0.356       0.00359595959596       1       3       99       0       3       ;
87       4718       999999       0.336       0.00339393939394       1       3       99       0       3       ;
88       4718       999999       0.231       0.00233333333333       1       3       99       0       3       ;
89       8236       999999       0.488       0.00492929292929       1       3       99       0       3       ;
90       4861       999999       0.173       0.00174747474747       1       3       99       0       3       ;
91       8085       999999       0.09       0.000909090909091       1       3       99       0       3       ;
92       4751       999999       0.057       0.000575757575758       1       3       99       0       3       ;
93       7636       999999       0.188       0.00189898989899       1       3       99       0       3       ;
94       4576       999999       0.099       0.001       1       3       99       0       3       ;
95       14474       999999       0.428282709072       0.00432608797042       1       3       99       0       0       ;
96       7621       999999       0.285314738491       0.00288196705546       1       3       99       0       0       ;
96       14473       999999       0.655881013865       0.00662506074611       1       3       99       0       0       ;
97       7546       999999       0.214       0.00216161616162       1       3       99       0       3       ;
98       7578       999999       0.155       0.00156565656566       1       3       99       0       3       ;
99       8119       999999       0.258       0.00260606060606       1       3       99       0       3       ;
100       4868       999999       0.309       0.00312121212121       1       3       99       0       3       ;
101       8089       999999       0.429       0.00433333333333       1       3       99       0       3       ;
102       4930       999999       0.588       0.00593939393939       1       3       99       0       3       ;
103       4765       999999       0.433       0.00437373737374       1       3       99       0       3       ;
104       4769       999999       0.397       0.0040101010101       1       3       99       0       3       ;
104       8127       999999       0.409       0.00413131313131       1       3       99       0       0       ;
105       8233       999999       0.502       0.00507070707071       1       3       99       0       3       ;
106       8130       999999       0.513096071048       0.00518278859645       1       3       99       0       0       ;
106       14472       999999       0.637260957309       0.00643697936676       1       3       99       0       0       ;
107       4704       999999       0.477       0.00481818181818       1       3       99       0       0       ;
107       7660       999999       0.466       0.00470707070707       1       3       99       0       0       ;
108       4649       999999       0.164       0.00165656565657       1       3       99       0       0       ;
108       4709       999999       0.513       0.00518181818182       1       3       99       0       0       ;
109       14053       999999       0.407943026819       0.00412063663454       1       3       99       0       0       ;
109       14080       999999       0.49931818544       0.00504361803475       1       3       99       0       0       ;
110       7539       999999       0.18       0.00181818181818       1       3       99       0       3       ;
111       4479       999999       0.396794855158       0.00400802883998       1       3       99       0       0       ;
111       7527       999999       0.524       0.00529292929293       1       3       99       0       9       ;
111       7558       999999       0.622       0.00628282828283       1       3       99       0       9       ;
112       7664       999999       0.363       0.00366666666667       1       3       99       0       0       ;
112       12572       999999       0.126       0.00127272727273       1       3       99       0       0       ;
113       4637       999999       0.709       0.00716161616162       1       3       99       0       0       ;
113       12573       999999       0.307       0.00310101010101       1       3       99       0       0       ;
114       4446       999999       0.305801759946       0.00308890666612       1       3       99       0       0       ;
114       7453       999999       0.261568411391       0.00264210516557       1       3       99       0       0       ;
114       14027       999999       0.066       0.000666666666667       1       3       99       0       0       ;
115       14471       999999       0.240944036687       0.00243377814835       1       3       99       0       0       ;
116       4638       999999       0.573       0.00578787878788       1       3       99       0       0       ;
116       4664       999999       0.265       0.00267676767677       1       3       99       0       0       ;
117       4632       999999       0.752       0.00759595959596       1       3       99       0       0       ;
117       4697       999999       0.164       0.00165656565657       1       3       99       0       3       ;
118       4587       999999       0.345       0.00348484848485       1       3       99       0       0       ;
118       14302       999999       0.397       0.0040101010101       1       3       99       0       0       ;
119       7777       999999       0.84       0.00848484848485       1       3       99       0       9       ;
120       14006       999999       0.293       0.0029595959596       1       3       99       0       0       ;
120       14193       999999       0.302       0.00305050505051       1       3       99       0       0       ;
121       4501       999999       0.561624168845       0.00567297140248       1       3       99       0       0       ;
121       4529       999999       0.302       0.00305050505051       1       3       99       0       3       ;
122       8681       999999       0.426       0.00430303030303       1       3       99       0       3       ;
123       12496       999999       0.395       0.0039898989899       1       3       99       0       9       ;
124       8078       999999       0.21       0.00212121212121       1       3       99       0       3       ;
125       4839       999999       0.197       0.0019898989899       1       3       99       0       3       ;
126       8653       999999       0.451       0.00455555555556       1       3       99       0       3       ;
127       7804       999999       1.207       0.0121919191919       1       3       99       0       9       ;
127       7817       999999       1.05       0.0106060606061       1       3       99       0       9       ;
127       7856       999999       0.351       0.00354545454545       1       3       99       0       3       ;
128       7846       999999       0.171       0.00172727272727       1       3       99       0       3       ;
129       7844       999999       0.365       0.00368686868687       1       3       99       0       3       ;
130       5028       999999       0.15       0.00151515151515       1       3       99       0       3       ;
131       5024       999999       0.211       0.00213131313131       1       3       99       0       3       ;
132       4722       999999       0.460215971369       0.00464864617544       1       3       99       0       0       ;
133       4732       999999       0.007       7.07070707071e-005       1       3       99       0       3       ;
134       8051       999999       0.176       0.00177777777778       1       3       99       0       3       ;
135       8674       999999       0.279       0.00281818181818       1       3       99       0       3       ;
136       4853       999999       0.223       0.00225252525253       1       3       99       0       3       ;
137       4692       999999       0.11       0.00111111111111       1       3       99       0       3       ;
138       8063       999999       0.073       0.000737373737374       1       3       99       0       3       ;
138       8669       999999       0.424217932167       0.00428502961785       1       3       99       0       0       ;
139       8046       999999       0.387       0.00390909090909       1       3       99       0       9       ;
140       12484       999999       0.247       0.00249494949495       1       3       99       0       9       ;
141       4666       999999       0.288       0.00290909090909       1       3       99       0       3       ;
142       12547       999999       0.815       0.00823232323232       1       3       99       0       9       ;
142       14466       999999       0.49473733619       0.0049973468302       1       3       99       0       0       ;
142       14467       999999       0.746152109924       0.00753688999923       1       3       99       0       0       ;
143       4237       999999       0.205       0.00207070707071       1       3       99       0       3       ;
144       4179       999999       0.074       0.000747474747475       1       3       99       0       3       ;
145       7941       999999       0.18       0.00181818181818       1       3       99       0       3       ;
146       7932       999999       0.15       0.00151515151515       1       3       99       0       3       ;
147       4173       999999       0.158       0.00159595959596       1       3       99       0       3       ;
148       7954       999999       0.098       0.000989898989899       1       3       99       0       3       ;
149       3962       999999       0.463       0.00467676767677       1       3       99       0       3       ;
150       7965       999999       0.016       0.000161616161616       1       3       99       0       3       ;
151       4359       999999       0.602       0.00608080808081       1       3       99       0       0       ;
151       4417       999999       0.224       0.00226262626263       1       3       99       0       3       ;
152       7973       999999       0.298       0.0030101010101       1       3       99       0       3       ;
153       4243       999999       0.273       0.00275757575758       1       3       99       0       3       ;
153       4281       999999       0.56308038114       0.00568768061758       1       3       99       0       0       ;
153       14468       999999       0.141113101691       0.00142538486557       1       3       99       0       0       ;
154       4534       999999       0.464       0.00468686868687       1       3       99       0       9       ;
155       4505       999999       0.101       0.0010202020202       1       3       99       0       0       ;
155       8055       999999       0.562       0.00567676767677       1       3       99       0       0       ;
156       7929       999999       0.038       0.000383838383838       1       3       99       0       0       ;
157       4276       999999       0.329105277957       0.00332429573694       1       3       99       0       0       ;
158       4296       999999       0.396       0.004       1       3       99       0       0       ;
158       7908       999999       0.715878126763       0.00723109218953       1       3       99       0       0       ;
159       4125       999999       0.41       0.00414141414141       1       3       99       0       0       ;
160       14460       999999       0.395713304552       0.00399710408638       1       3       99       0       0       ;
161       7073       999999       0.189       0.00190909090909       1       3       99       0       0       ;
161       14153       999999       0.366       0.00369696969697       1       3       99       0       0       ;
162       4292       999999       0.169       0.00170707070707       1       3       99       0       0       ;
162       13851       999999       0.195       0.0019696969697       1       3       99       0       0       ;
163       4309       999999       0.251       0.00253535353535       1       3       99       0       0       ;
163       4352       999999       0.246       0.00248484848485       1       3       99       0       0       ;
163       7500       999999       0.183       0.00184848484848       1       3       99       0       0       ;
163       7503       999999       0.441930960628       0.00446394909725       1       3       99       0       0       ;
163       13883       999999       0.386343716846       0.00390246178633       1       3       99       0       0       ;
163       14222       999999       0.336155205683       0.00339550712811       1       3       99       0       0       ;
164       4372       999999       0.325341501484       0.00328627779276       1       3       99       0       0       ;
164       7474       999999       0.524770344308       0.00530071054856       1       3       99       0       0       ;
164       7478       999999       0.264914105454       0.00267590005509       1       3       99       0       0       ;
164       14074       999999       0.19353535395       0.00195490256515       1       3       99       0       0       ;
165       7081       999999       0.32386008127       0.00327131395223       1       3       99       0       0       ;
166       3955       999999       0.366       0.00369696969697       1       3       99       0       0       ;
167       5126       999999       0.521       0.00526262626263       1       3       99       0       9       ;
167       12532       999999       0.608       0.00614141414141       1       3       99       0       9       ;
168       8156       999999       0.192       0.00193939393939       1       3       99       0       3       ;
169       8153       999999       0.557       0.00562626262626       1       3       99       0       3       ;
170       8164       999999       0.244       0.00246464646465       1       3       99       0       3       ;
171       8160       999999       0.407       0.00411111111111       1       3       99       0       9       ;
172       7324       999999       0.133       0.00134343434343       1       3       99       0       3       ;
173       12577       999999       0.363       0.00366666666667       1       3       99       0       9       ;
173       12578       999999       0.437       0.00441414141414       1       3       99       0       9       ;
174       4180       999999       0.346       0.00349494949495       1       3       99       0       3       ;
174       4190       999999       0.672       0.00678787878788       1       3       99       0       0       ;
175       4111       999999       0.29       0.00292929292929       1       3       99       0       3       ;
175       4187       999999       0.617       0.00623232323232       1       3       99       0       0       ;
176       14461       999999       0.165977624204       0.00167654165863       1       3       99       0       0       ;
176       14463       999999       0.408603297818       0.00412730603857       1       3       99       0       0       ;
177       4914       999999       0.248       0.00250505050505       1       3       99       0       3       ;
178       5002       999999       0.057       0.000575757575758       1       3       99       0       3       ;
179       4903       999999       0.202       0.0020404040404       1       3       99       0       3       ;
180       5004       999999       0.429       0.00433333333333       1       3       99       0       3       ;
181       8149       999999       0.304       0.00307070707071       1       3       99       0       3       ;
182       4554       999999       0.557       0.00562626262626       1       3       99       0       0       ;
182       7549       999999       0.359602324841       0.00363234671557       1       3       99       0       0       ;
183       8235       999999       0.026       0.000262626262626       1       3       99       0       3       ;
184       7639       999999       0.304       0.00307070707071       1       3       99       0       0       ;
185       4554       999999       0.474       0.00478787878788       1       3       99       0       0       ;
185       4613       999999       0.182       0.00183838383838       1       3       99       0       0       ;
186       8415       999999       0.153       0.00154545454545       1       3       99       0       3       ;
187       4377       999999       0.281       0.00283838383838       1       3       99       0       3       ;
188       4312       999999       0.077       0.000777777777778       1       3       99       0       3       ;
189       8377       999999       0.413       0.00417171717172       1       3       99       0       9       ;
190       4379       999999       0.048       0.000484848484848       1       3       99       0       3       ;
191       4433       999999       0.436       0.00440404040404       1       3       99       0       3       ;
192       8047       999999       0.544       0.00549494949495       1       3       99       0       3       ;
193       8496       999999       0.318       0.00321212121212       1       3       99       0       3       ;
194       8660       999999       0.111       0.00112121212121       1       3       99       0       3       ;
195       4531       999999       0.133       0.00134343434343       1       3       99       0       3       ;
196       4833       999999       0.313       0.00316161616162       1       3       99       0       3       ;
197       8652       999999       0.62       0.00626262626263       1       3       99       0       9       ;
198       8490       999999       0.113       0.00114141414141       1       3       99       0       3       ;
199       8491       999999       0.802       0.00810101010101       1       3       99       0       9       ;
199       8494       999999       0.378       0.00381818181818       1       3       99       0       9       ;
199       8655       999999       0.22       0.00222222222222       1       3       99       0       3       ;
200       4508       999999       0.21       0.00212121212121       1       3       99       0       3       ;
201       14477       999999       0.782983987239       0.00790892916403       1       3       99       0       0       ;