<NUMBER OF ZONES> 23
<TOTAL OD FLOW> 11205.099999999995000
<END OF METADATA> 


Origin 1 
2 	: 	12.600000; 	3 	: 	4.540000; 	4 	: 	2.210000; 	5 	: 	3.870000; 	6 	: 	3.110000; 	
7 	: 	3.080000; 	8 	: 	5.010000; 	9 	: 	34.870000; 	10 	: 	4.980000; 	11 	: 	3.930000; 	
12 	: 	6.680000; 	13 	: 	3.450000; 	14 	: 	4.380000; 	15 	: 	3.280000; 	16 	: 	3.370000; 	
17 	: 	9.230000; 	18 	: 	13.150000; 	19 	: 	30.070000; 	20 	: 	3.880000; 	21 	: 	5.290000; 	
22 	: 	1.400000; 	23 	: 	23.800000; 	

Origin 2 
1 	: 	12.500000; 	3 	: 	6.250000; 	4 	: 	4.600000; 	5 	: 	7.800000; 	6 	: 	5.270000; 	
7 	: 	5.880000; 	8 	: 	7.330000; 	9 	: 	62.530000; 	10 	: 	6.610000; 	11 	: 	8.510000; 	
12 	: 	13.340000; 	13 	: 	4.520000; 	14 	: 	5.640000; 	15 	: 	6.420000; 	16 	: 	6.760000; 	
17 	: 	19.840000; 	18 	: 	20.360000; 	19 	: 	42.450000; 	20 	: 	5.010000; 	21 	: 	7.690000; 	
22 	: 	2.060000; 	23 	: 	47.320000; 	

Origin 3 
1 	: 	4.090000; 	2 	: 	8.080000; 	4 	: 	16.950000; 	5 	: 	44.530000; 	6 	: 	21.890000; 	
7 	: 	27.230000; 	8 	: 	40.590000; 	9 	: 	13.420000; 	10 	: 	36.740000; 	11 	: 	52.120000; 	
12 	: 	51.110000; 	13 	: 	26.340000; 	14 	: 	33.820000; 	15 	: 	33.260000; 	16 	: 	43.590000; 	
17 	: 	5.090000; 	18 	: 	4.140000; 	19 	: 	7.290000; 	20 	: 	22.940000; 	21 	: 	37.930000; 	
22 	: 	6.940000; 	23 	: 	10.050000; 	

Origin 4 
1 	: 	2.780000; 	2 	: 	3.680000; 	3 	: 	16.330000; 	5 	: 	22.000000; 	6 	: 	15.240000; 	
7 	: 	16.980000; 	8 	: 	31.750000; 	9 	: 	6.670000; 	10 	: 	18.770000; 	11 	: 	23.760000; 	
12 	: 	28.440000; 	13 	: 	14.430000; 	14 	: 	20.970000; 	15 	: 	17.090000; 	16 	: 	27.250000; 	
17 	: 	2.600000; 	18 	: 	3.440000; 	19 	: 	4.700000; 	20 	: 	17.240000; 	21 	: 	29.420000; 	
22 	: 	6.310000; 	23 	: 	4.130000; 	

Origin 5 
1 	: 	5.080000; 	2 	: 	7.360000; 	3 	: 	45.300000; 	4 	: 	23.260000; 	6 	: 	20.000000; 	
7 	: 	28.160000; 	8 	: 	44.290000; 	9 	: 	18.650000; 	10 	: 	40.970000; 	11 	: 	40.710000; 	
12 	: 	61.280000; 	13 	: 	27.390000; 	14 	: 	33.430000; 	15 	: 	28.250000; 	16 	: 	40.550000; 	
17 	: 	4.780000; 	18 	: 	7.490000; 	19 	: 	13.450000; 	20 	: 	39.800000; 	21 	: 	57.580000; 	
22 	: 	8.920000; 	23 	: 	10.240000; 	

Origin 6 
1 	: 	4.380000; 	2 	: 	6.550000; 	3 	: 	26.190000; 	4 	: 	18.070000; 	5 	: 	23.540000; 	
7 	: 	14.170000; 	8 	: 	16.180000; 	9 	: 	14.730000; 	10 	: 	36.180000; 	11 	: 	32.880000; 	
12 	: 	45.760000; 	13 	: 	27.130000; 	14 	: 	24.200000; 	15 	: 	27.590000; 	16 	: 	28.900000; 	
17 	: 	4.230000; 	18 	: 	5.690000; 	19 	: 	8.960000; 	20 	: 	20.740000; 	21 	: 	38.240000; 	
22 	: 	1.150000; 	23 	: 	6.790000; 	

Origin 7 
1 	: 	4.010000; 	2 	: 	5.370000; 	3 	: 	27.400000; 	4 	: 	17.690000; 	5 	: 	27.760000; 	
6 	: 	12.020000; 	8 	: 	31.670000; 	9 	: 	12.080000; 	10 	: 	34.590000; 	11 	: 	31.210000; 	
12 	: 	50.950000; 	13 	: 	25.630000; 	14 	: 	23.090000; 	15 	: 	19.210000; 	16 	: 	29.410000; 	
17 	: 	3.310000; 	18 	: 	4.950000; 	19 	: 	7.970000; 	20 	: 	19.980000; 	21 	: 	29.300000; 	
22 	: 	4.730000; 	23 	: 	5.690000; 	

Origin 8 
1 	: 	5.580000; 	2 	: 	10.030000; 	3 	: 	44.720000; 	4 	: 	36.080000; 	5 	: 	48.460000; 	
6 	: 	13.940000; 	7 	: 	34.970000; 	9 	: 	25.490000; 	10 	: 	68.250000; 	11 	: 	74.070000; 	
12 	: 	70.940000; 	13 	: 	39.880000; 	14 	: 	41.240000; 	15 	: 	39.110000; 	16 	: 	39.360000; 	
17 	: 	6.520000; 	18 	: 	8.050000; 	19 	: 	14.740000; 	20 	: 	43.630000; 	21 	: 	65.990000; 	
22 	: 	6.160000; 	23 	: 	14.100000; 	

Origin 9 
1 	: 	35.890000; 	2 	: 	64.720000; 	3 	: 	10.890000; 	4 	: 	8.640000; 	5 	: 	20.400000; 	
6 	: 	11.880000; 	7 	: 	13.680000; 	8 	: 	19.010000; 	10 	: 	15.810000; 	11 	: 	22.600000; 	
12 	: 	32.090000; 	13 	: 	12.500000; 	14 	: 	13.090000; 	15 	: 	14.430000; 	16 	: 	18.300000; 	
17 	: 	50.830000; 	18 	: 	44.140000; 	19 	: 	75.830000; 	20 	: 	12.150000; 	21 	: 	16.570000; 	
22 	: 	4.650000; 	23 	: 	104.930000; 	

Origin 10 
1 	: 	3.820000; 	2 	: 	8.190000; 	3 	: 	35.060000; 	4 	: 	18.530000; 	5 	: 	38.440000; 	
6 	: 	30.070000; 	7 	: 	32.740000; 	8 	: 	60.140000; 	9 	: 	18.390000; 	11 	: 	41.410000; 	
12 	: 	63.550000; 	13 	: 	23.360000; 	14 	: 	33.120000; 	15 	: 	31.980000; 	16 	: 	54.470000; 	
17 	: 	5.690000; 	18 	: 	5.850000; 	19 	: 	7.010000; 	20 	: 	35.300000; 	21 	: 	53.670000; 	
22 	: 	12.270000; 	23 	: 	9.130000; 	

Origin 11 
1 	: 	4.910000; 	2 	: 	6.690000; 	3 	: 	50.010000; 	4 	: 	23.650000; 	5 	: 	38.360000; 	
6 	: 	27.720000; 	7 	: 	29.820000; 	8 	: 	65.000000; 	9 	: 	17.230000; 	10 	: 	41.750000; 	
12 	: 	75.230000; 	13 	: 	31.960000; 	14 	: 	34.340000; 	15 	: 	28.020000; 	16 	: 	56.860000; 	
17 	: 	4.610000; 	18 	: 	7.490000; 	19 	: 	10.940000; 	20 	: 	40.540000; 	21 	: 	58.050000; 	
22 	: 	12.330000; 	23 	: 	7.560000; 	

Origin 12 
1 	: 	8.660000; 	2 	: 	12.180000; 	3 	: 	51.390000; 	4 	: 	29.620000; 	5 	: 	60.360000; 	
6 	: 	38.790000; 	7 	: 	50.930000; 	8 	: 	64.220000; 	9 	: 	28.330000; 	10 	: 	67.090000; 	
11 	: 	78.680000; 	13 	: 	42.060000; 	14 	: 	65.390000; 	15 	: 	53.470000; 	16 	: 	66.510000; 	
17 	: 	8.310000; 	18 	: 	12.750000; 	19 	: 	19.350000; 	20 	: 	46.840000; 	21 	: 	96.120000; 	
22 	: 	14.050000; 	23 	: 	16.940000; 	

Origin 13 
1 	: 	2.670000; 	2 	: 	5.610000; 	3 	: 	25.170000; 	4 	: 	14.270000; 	5 	: 	25.730000; 	
6 	: 	22.540000; 	7 	: 	24.240000; 	8 	: 	35.220000; 	9 	: 	14.580000; 	10 	: 	23.390000; 	
11 	: 	31.750000; 	12 	: 	39.900000; 	14 	: 	24.740000; 	15 	: 	23.440000; 	16 	: 	33.420000; 	
17 	: 	4.020000; 	18 	: 	4.140000; 	19 	: 	6.010000; 	20 	: 	24.170000; 	21 	: 	38.600000; 	
22 	: 	9.190000; 	23 	: 	7.730000; 	

Origin 14 
1 	: 	3.760000; 	2 	: 	7.190000; 	3 	: 	33.380000; 	4 	: 	21.330000; 	5 	: 	32.270000; 	
6 	: 	20.190000; 	7 	: 	22.520000; 	8 	: 	37.080000; 	9 	: 	15.820000; 	10 	: 	34.330000; 	
11 	: 	35.100000; 	12 	: 	63.810000; 	13 	: 	25.600000; 	15 	: 	24.410000; 	16 	: 	35.450000; 	
17 	: 	5.620000; 	18 	: 	5.250000; 	19 	: 	7.090000; 	20 	: 	30.670000; 	21 	: 	42.850000; 	
22 	: 	8.160000; 	23 	: 	6.860000; 	

Origin 15 
1 	: 	4.110000; 	2 	: 	5.110000; 	3 	: 	31.860000; 	4 	: 	17.100000; 	5 	: 	26.720000; 	
6 	: 	23.280000; 	7 	: 	18.430000; 	8 	: 	34.310000; 	9 	: 	11.110000; 	10 	: 	32.150000; 	
11 	: 	28.160000; 	12 	: 	51.330000; 	13 	: 	23.520000; 	14 	: 	23.830000; 	16 	: 	27.050000; 	
17 	: 	3.160000; 	18 	: 	5.630000; 	19 	: 	7.500000; 	20 	: 	29.770000; 	21 	: 	37.360000; 	
22 	: 	9.040000; 	23 	: 	4.970000; 	

Origin 16 
1 	: 	4.330000; 	2 	: 	6.050000; 	3 	: 	43.490000; 	4 	: 	28.180000; 	5 	: 	39.660000; 	
6 	: 	24.470000; 	7 	: 	29.190000; 	8 	: 	35.440000; 	9 	: 	15.830000; 	10 	: 	57.100000; 	
11 	: 	59.050000; 	12 	: 	66.020000; 	13 	: 	35.080000; 	14 	: 	36.060000; 	15 	: 	27.980000; 	
17 	: 	4.300000; 	18 	: 	6.720000; 	19 	: 	12.210000; 	20 	: 	40.030000; 	21 	: 	56.450000; 	
22 	: 	10.380000; 	23 	: 	9.560000; 	

Origin 17 
1 	: 	9.920000; 	2 	: 	21.410000; 	3 	: 	4.390000; 	4 	: 	3.510000; 	5 	: 	5.470000; 	
6 	: 	3.420000; 	7 	: 	3.930000; 	8 	: 	5.010000; 	9 	: 	53.050000; 	10 	: 	5.280000; 	
11 	: 	6.290000; 	12 	: 	9.850000; 	13 	: 	3.730000; 	14 	: 	4.970000; 	15 	: 	4.280000; 	
16 	: 	5.190000; 	18 	: 	14.430000; 	19 	: 	33.070000; 	20 	: 	4.050000; 	21 	: 	4.720000; 	
22 	: 	1.360000; 	23 	: 	32.220000; 	

Origin 18 
1 	: 	13.880000; 	2 	: 	21.700000; 	3 	: 	4.850000; 	4 	: 	3.030000; 	5 	: 	6.170000; 	
6 	: 	4.070000; 	7 	: 	4.130000; 	8 	: 	7.470000; 	9 	: 	45.400000; 	10 	: 	8.000000; 	
11 	: 	6.640000; 	12 	: 	10.650000; 	13 	: 	5.650000; 	14 	: 	6.480000; 	15 	: 	4.980000; 	
16 	: 	5.670000; 	17 	: 	14.180000; 	19 	: 	39.080000; 	20 	: 	5.080000; 	21 	: 	6.580000; 	
22 	: 	1.740000; 	23 	: 	36.910000; 	

Origin 19 
1 	: 	30.690000; 	2 	: 	43.730000; 	3 	: 	8.260000; 	4 	: 	3.900000; 	5 	: 	10.550000; 	
6 	: 	6.390000; 	7 	: 	6.340000; 	8 	: 	13.380000; 	9 	: 	75.300000; 	10 	: 	9.310000; 	
11 	: 	9.120000; 	12 	: 	15.370000; 	13 	: 	7.940000; 	14 	: 	8.450000; 	15 	: 	6.230000; 	
16 	: 	9.790000; 	17 	: 	31.400000; 	18 	: 	37.780000; 	20 	: 	8.980000; 	21 	: 	13.660000; 	
22 	: 	2.960000; 	23 	: 	41.390000; 	

Origin 20 
1 	: 	3.190000; 	2 	: 	6.320000; 	3 	: 	22.310000; 	4 	: 	17.380000; 	5 	: 	38.030000; 	
6 	: 	17.270000; 	7 	: 	19.290000; 	8 	: 	38.870000; 	9 	: 	14.480000; 	10 	: 	36.010000; 	
11 	: 	41.050000; 	12 	: 	45.250000; 	13 	: 	24.610000; 	14 	: 	30.190000; 	15 	: 	30.220000; 	
16 	: 	38.960000; 	17 	: 	4.490000; 	18 	: 	3.970000; 	19 	: 	7.230000; 	21 	: 	28.220000; 	
22 	: 	5.400000; 	23 	: 	7.960000; 	

Origin 21 
1 	: 	4.140000; 	2 	: 	9.570000; 	3 	: 	36.350000; 	4 	: 	29.170000; 	5 	: 	54.220000; 	
6 	: 	31.800000; 	7 	: 	27.850000; 	8 	: 	58.290000; 	9 	: 	19.390000; 	10 	: 	53.920000; 	
11 	: 	57.840000; 	12 	: 	91.460000; 	13 	: 	38.720000; 	14 	: 	41.550000; 	15 	: 	37.330000; 	
16 	: 	54.100000; 	17 	: 	5.120000; 	18 	: 	4.880000; 	19 	: 	10.450000; 	20 	: 	27.790000; 	
22 	: 	10.090000; 	23 	: 	11.480000; 	

Origin 22 
1 	: 	1.690000; 	2 	: 	2.870000; 	3 	: 	8.030000; 	4 	: 	7.470000; 	5 	: 	10.370000; 	
6 	: 	1.050000; 	7 	: 	5.520000; 	8 	: 	6.720000; 	9 	: 	6.440000; 	10 	: 	14.410000; 	
11 	: 	14.620000; 	12 	: 	16.410000; 	13 	: 	10.760000; 	14 	: 	9.480000; 	15 	: 	10.700000; 	
16 	: 	12.140000; 	17 	: 	1.860000; 	18 	: 	2.070000; 	19 	: 	3.540000; 	20 	: 	6.310000; 	
21 	: 	11.830000; 	23 	: 	3.080000; 	

Origin 23 
1 	: 	25.120000; 	2 	: 	50.160000; 	3 	: 	8.460000; 	4 	: 	5.470000; 	5 	: 	11.490000; 	
6 	: 	5.500000; 	7 	: 	6.610000; 	8 	: 	10.700000; 	9 	: 	107.530000; 	10 	: 	8.190000; 	
11 	: 	10.150000; 	12 	: 	19.690000; 	13 	: 	6.910000; 	14 	: 	5.900000; 	15 	: 	6.620000; 	
16 	: 	11.340000; 	17 	: 	31.630000; 	18 	: 	36.830000; 	19 	: 	42.770000; 	20 	: 	6.970000; 	
21 	: 	10.240000; 	22 	: 	2.240000; 	
