<NUMBER OF ZONES> 23
<NUMBER OF NODES> 224
<FIRST THRU NODE> 24
<NUMBER OF LINKS> 523
<END OF METADATA> 



~ 	Init node 	Term node 	Capacity 	Length 	Free Flow Time 	B 	Power 	Speed limit 	Toll 	Type 	; 
 	1   	31  	999999.0000000000 	  0.0000000000 	 0.0000000000 	0.0000000000 	4.000000 	0.000000 	0.000000 	0 	; 
 	1   	32  	999999.0000000000 	  0.0000000000 	 0.0000000000 	0.0000000000 	4.000000 	0.000000 	0.000000 	0 	; 
 	1   	159 	999999.0000000000 	  0.0000000000 	 0.0000000000 	0.0000000000 	4.000000 	0.000000 	0.000000 	0 	; 
 	1   	161 	999999.0000000000 	  0.0000000000 	 0.0000000000 	0.0000000000 	4.000000 	0.000000 	0.000000 	0 	; 
 	2   	31  	999999.0000000000 	  0.0000000000 	 0.0000000000 	0.0000000000 	4.000000 	0.000000 	0.000000 	0 	; 
 	2   	32  	999999.0000000000 	  0.0000000000 	 0.0000000000 	0.0000000000 	4.000000 	0.000000 	0.000000 	0 	; 
 	2   	37  	999999.0000000000 	  0.0000000000 	 0.0000000000 	0.0000000000 	4.000000 	0.000000 	0.000000 	0 	; 
 	2   	216 	999999.0000000000 	  0.0000000000 	 0.0000000000 	0.0000000000 	4.000000 	0.000000 	0.000000 	0 	; 
 	3   	42  	999999.0000000000 	  0.0000000000 	 0.0000000000 	0.0000000000 	4.000000 	0.000000 	0.000000 	0 	; 
 	3   	44  	999999.0000000000 	  0.0000000000 	 0.0000000000 	0.0000000000 	4.000000 	0.000000 	0.000000 	0 	; 
 	3   	61  	999999.0000000000 	  0.0000000000 	 0.0000000000 	0.0000000000 	4.000000 	0.000000 	0.000000 	0 	; 
 	3   	62  	999999.0000000000 	  0.0000000000 	 0.0000000000 	0.0000000000 	4.000000 	0.000000 	0.000000 	0 	; 
 	4   	70  	999999.0000000000 	  0.0000000000 	 0.0000000000 	0.0000000000 	4.000000 	0.000000 	0.000000 	0 	; 
 	4   	71  	999999.0000000000 	  0.0000000000 	 0.0000000000 	0.0000000000 	4.000000 	0.000000 	0.000000 	0 	; 
 	4   	75  	999999.0000000000 	  0.0000000000 	 0.0000000000 	0.0000000000 	4.000000 	0.000000 	0.000000 	0 	; 
 	4   	82  	999999.0000000000 	  0.0000000000 	 0.0000000000 	0.0000000000 	4.000000 	0.000000 	0.000000 	0 	; 
 	5   	73  	999999.0000000000 	  0.0000000000 	 0.0000000000 	0.0000000000 	4.000000 	0.000000 	0.000000 	0 	; 
 	5   	77  	999999.0000000000 	  0.0000000000 	 0.0000000000 	0.0000000000 	4.000000 	0.000000 	0.000000 	0 	; 
 	5   	78  	999999.0000000000 	  0.0000000000 	 0.0000000000 	0.0000000000 	4.000000 	0.000000 	0.000000 	0 	; 
 	5   	96  	999999.0000000000 	  0.0000000000 	 0.0000000000 	0.0000000000 	4.000000 	0.000000 	0.000000 	0 	; 
 	6   	193 	999999.0000000000 	  0.0000000000 	 0.0000000000 	0.0000000000 	4.000000 	0.000000 	0.000000 	0 	; 
 	6   	194 	999999.0000000000 	  0.0000000000 	 0.0000000000 	0.0000000000 	4.000000 	0.000000 	0.000000 	0 	; 
 	6   	195 	999999.0000000000 	  0.0000000000 	 0.0000000000 	0.0000000000 	4.000000 	0.000000 	0.000000 	0 	; 
 	6   	198 	999999.0000000000 	  0.0000000000 	 0.0000000000 	0.0000000000 	4.000000 	0.000000 	0.000000 	0 	; 
 	7   	179 	999999.0000000000 	  0.0000000000 	 0.0000000000 	0.0000000000 	4.000000 	0.000000 	0.000000 	0 	; 
 	7   	200 	999999.0000000000 	  0.0000000000 	 0.0000000000 	0.0000000000 	4.000000 	0.000000 	0.000000 	0 	; 
 	7   	201 	999999.0000000000 	  0.0000000000 	 0.0000000000 	0.0000000000 	4.000000 	0.000000 	0.000000 	0 	; 
 	7   	202 	999999.0000000000 	  0.0000000000 	 0.0000000000 	0.0000000000 	4.000000 	0.000000 	0.000000 	0 	; 
 	8   	99  	999999.0000000000 	  0.0000000000 	 0.0000000000 	0.0000000000 	4.000000 	0.000000 	0.000000 	0 	; 
 	8   	113 	999999.0000000000 	  0.0000000000 	 0.0000000000 	0.0000000000 	4.000000 	0.000000 	0.000000 	0 	; 
 	8   	114 	999999.0000000000 	  0.0000000000 	 0.0000000000 	0.0000000000 	4.000000 	0.000000 	0.000000 	0 	; 
 	8   	116 	999999.0000000000 	  0.0000000000 	 0.0000000000 	0.0000000000 	4.000000 	0.000000 	0.000000 	0 	; 
 	9   	29  	999999.0000000000 	  0.0000000000 	 0.0000000000 	0.0000000000 	4.000000 	0.000000 	0.000000 	0 	; 
 	9   	39  	999999.0000000000 	  0.0000000000 	 0.0000000000 	0.0000000000 	4.000000 	0.000000 	0.000000 	0 	; 
 	9   	47  	999999.0000000000 	  0.0000000000 	 0.0000000000 	0.0000000000 	4.000000 	0.000000 	0.000000 	0 	; 
 	9   	140 	999999.0000000000 	  0.0000000000 	 0.0000000000 	0.0000000000 	4.000000 	0.000000 	0.000000 	0 	; 
 	10  	74  	999999.0000000000 	  0.0000000000 	 0.0000000000 	0.0000000000 	4.000000 	0.000000 	0.000000 	0 	; 
 	10  	76  	999999.0000000000 	  0.0000000000 	 0.0000000000 	0.0000000000 	4.000000 	0.000000 	0.000000 	0 	; 
 	10  	79  	999999.0000000000 	  0.0000000000 	 0.0000000000 	0.0000000000 	4.000000 	0.000000 	0.000000 	0 	; 
 	10  	80  	999999.0000000000 	  0.0000000000 	 0.0000000000 	0.0000000000 	4.000000 	0.000000 	0.000000 	0 	; 
 	11  	134 	999999.0000000000 	  0.0000000000 	 0.0000000000 	0.0000000000 	4.000000 	0.000000 	0.000000 	0 	; 
 	11  	142 	999999.0000000000 	  0.0000000000 	 0.0000000000 	0.0000000000 	4.000000 	0.000000 	0.000000 	0 	; 
 	11  	144 	999999.0000000000 	  0.0000000000 	 0.0000000000 	0.0000000000 	4.000000 	0.000000 	0.000000 	0 	; 
 	11  	145 	999999.0000000000 	  0.0000000000 	 0.0000000000 	0.0000000000 	4.000000 	0.000000 	0.000000 	0 	; 
 	12  	92  	999999.0000000000 	  0.0000000000 	 0.0000000000 	0.0000000000 	4.000000 	0.000000 	0.000000 	0 	; 
 	12  	94  	999999.0000000000 	  0.0000000000 	 0.0000000000 	0.0000000000 	4.000000 	0.000000 	0.000000 	0 	; 
 	12  	126 	999999.0000000000 	  0.0000000000 	 0.0000000000 	0.0000000000 	4.000000 	0.000000 	0.000000 	0 	; 
 	12  	127 	999999.0000000000 	  0.0000000000 	 0.0000000000 	0.0000000000 	4.000000 	0.000000 	0.000000 	0 	; 
 	13  	68  	999999.0000000000 	  0.0000000000 	 0.0000000000 	0.0000000000 	4.000000 	0.000000 	0.000000 	0 	; 
 	13  	72  	999999.0000000000 	  0.0000000000 	 0.0000000000 	0.0000000000 	4.000000 	0.000000 	0.000000 	0 	; 
 	13  	128 	999999.0000000000 	  0.0000000000 	 0.0000000000 	0.0000000000 	4.000000 	0.000000 	0.000000 	0 	; 
 	13  	220 	999999.0000000000 	  0.0000000000 	 0.0000000000 	0.0000000000 	4.000000 	0.000000 	0.000000 	0 	; 
 	14  	164 	999999.0000000000 	  0.0000000000 	 0.0000000000 	0.0000000000 	4.000000 	0.000000 	0.000000 	0 	; 
 	14  	165 	999999.0000000000 	  0.0000000000 	 0.0000000000 	0.0000000000 	4.000000 	0.000000 	0.000000 	0 	; 
 	14  	173 	999999.0000000000 	  0.0000000000 	 0.0000000000 	0.0000000000 	4.000000 	0.000000 	0.000000 	0 	; 
 	14  	189 	999999.0000000000 	  0.0000000000 	 0.0000000000 	0.0000000000 	4.000000 	0.000000 	0.000000 	0 	; 
 	15  	151 	999999.0000000000 	  0.0000000000 	 0.0000000000 	0.0000000000 	4.000000 	0.000000 	0.000000 	0 	; 
 	15  	157 	999999.0000000000 	  0.0000000000 	 0.0000000000 	0.0000000000 	4.000000 	0.000000 	0.000000 	0 	; 
 	15  	183 	999999.0000000000 	  0.0000000000 	 0.0000000000 	0.0000000000 	4.000000 	0.000000 	0.000000 	0 	; 
 	15  	184 	999999.0000000000 	  0.0000000000 	 0.0000000000 	0.0000000000 	4.000000 	0.000000 	0.000000 	0 	; 
 	16  	99  	999999.0000000000 	  0.0000000000 	 0.0000000000 	0.0000000000 	4.000000 	0.000000 	0.000000 	0 	; 
 	16  	100 	999999.0000000000 	  0.0000000000 	 0.0000000000 	0.0000000000 	4.000000 	0.000000 	0.000000 	0 	; 
 	16  	103 	999999.0000000000 	  0.0000000000 	 0.0000000000 	0.0000000000 	4.000000 	0.000000 	0.000000 	0 	; 
 	16  	104 	999999.0000000000 	  0.0000000000 	 0.0000000000 	0.0000000000 	4.000000 	0.000000 	0.000000 	0 	; 
 	17  	88  	999999.0000000000 	  0.0000000000 	 0.0000000000 	0.0000000000 	4.000000 	0.000000 	0.000000 	0 	; 
 	17  	89  	999999.0000000000 	  0.0000000000 	 0.0000000000 	0.0000000000 	4.000000 	0.000000 	0.000000 	0 	; 
 	17  	159 	999999.0000000000 	  0.0000000000 	 0.0000000000 	0.0000000000 	4.000000 	0.000000 	0.000000 	0 	; 
 	17  	160 	999999.0000000000 	  0.0000000000 	 0.0000000000 	0.0000000000 	4.000000 	0.000000 	0.000000 	0 	; 
 	18  	29  	999999.0000000000 	  0.0000000000 	 0.0000000000 	0.0000000000 	4.000000 	0.000000 	0.000000 	0 	; 
 	18  	30  	999999.0000000000 	  0.0000000000 	 0.0000000000 	0.0000000000 	4.000000 	0.000000 	0.000000 	0 	; 
 	18  	39  	999999.0000000000 	  0.0000000000 	 0.0000000000 	0.0000000000 	4.000000 	0.000000 	0.000000 	0 	; 
 	18  	47  	999999.0000000000 	  0.0000000000 	 0.0000000000 	0.0000000000 	4.000000 	0.000000 	0.000000 	0 	; 
 	19  	26  	999999.0000000000 	  0.0000000000 	 0.0000000000 	0.0000000000 	4.000000 	0.000000 	0.000000 	0 	; 
 	19  	136 	999999.0000000000 	  0.0000000000 	 0.0000000000 	0.0000000000 	4.000000 	0.000000 	0.000000 	0 	; 
 	19  	138 	999999.0000000000 	  0.0000000000 	 0.0000000000 	0.0000000000 	4.000000 	0.000000 	0.000000 	0 	; 
 	19  	139 	999999.0000000000 	  0.0000000000 	 0.0000000000 	0.0000000000 	4.000000 	0.000000 	0.000000 	0 	; 
 	20  	52  	999999.0000000000 	  0.0000000000 	 0.0000000000 	0.0000000000 	4.000000 	0.000000 	0.000000 	0 	; 
 	20  	53  	999999.0000000000 	  0.0000000000 	 0.0000000000 	0.0000000000 	4.000000 	0.000000 	0.000000 	0 	; 
 	20  	60  	999999.0000000000 	  0.0000000000 	 0.0000000000 	0.0000000000 	4.000000 	0.000000 	0.000000 	0 	; 
 	20  	190 	999999.0000000000 	  0.0000000000 	 0.0000000000 	0.0000000000 	4.000000 	0.000000 	0.000000 	0 	; 
 	21  	65  	999999.0000000000 	  0.0000000000 	 0.0000000000 	0.0000000000 	4.000000 	0.000000 	0.000000 	0 	; 
 	21  	190 	999999.0000000000 	  0.0000000000 	 0.0000000000 	0.0000000000 	4.000000 	0.000000 	0.000000 	0 	; 
 	21  	201 	999999.0000000000 	  0.0000000000 	 0.0000000000 	0.0000000000 	4.000000 	0.000000 	0.000000 	0 	; 
 	21  	208 	999999.0000000000 	  0.0000000000 	 0.0000000000 	0.0000000000 	4.000000 	0.000000 	0.000000 	0 	; 
 	22  	179 	999999.0000000000 	  0.0000000000 	 0.0000000000 	0.0000000000 	4.000000 	0.000000 	0.000000 	0 	; 
 	22  	190 	999999.0000000000 	  0.0000000000 	 0.0000000000 	0.0000000000 	4.000000 	0.000000 	0.000000 	0 	; 
 	22  	200 	999999.0000000000 	  0.0000000000 	 0.0000000000 	0.0000000000 	4.000000 	0.000000 	0.000000 	0 	; 
 	22  	206 	999999.0000000000 	  0.0000000000 	 0.0000000000 	0.0000000000 	4.000000 	0.000000 	0.000000 	0 	; 
 	23  	25  	999999.0000000000 	  0.0000000000 	 0.0000000000 	0.0000000000 	4.000000 	0.000000 	0.000000 	0 	; 
 	23  	54  	999999.0000000000 	  0.0000000000 	 0.0000000000 	0.0000000000 	4.000000 	0.000000 	0.000000 	0 	; 
 	23  	57  	999999.0000000000 	  0.0000000000 	 0.0000000000 	0.0000000000 	4.000000 	0.000000 	0.000000 	0 	; 
 	23  	223 	999999.0000000000 	  0.0000000000 	 0.0000000000 	0.0000000000 	4.000000 	0.000000 	0.000000 	0 	; 
 	24  	27  	   900.0000000000 	 25.0000000000 	 1.0000000000 	1.0000000000 	4.000000 	0.000000 	0.000000 	1 	; 
 	24  	28  	  2800.0000000000 	414.0000000000 	12.6666670000 	1.0000000000 	4.000000 	0.000000 	0.000000 	1 	; 
 	25  	23  	999999.0000000000 	  0.0000000000 	 0.0000000000 	0.0000000000 	4.000000 	0.000000 	0.000000 	0 	; 
 	25  	26  	  2800.0000000000 	317.0000000000 	14.0000000000 	1.0000000000 	4.000000 	0.000000 	0.000000 	1 	; 
 	26  	19  	999999.0000000000 	  0.0000000000 	 0.0000000000 	0.0000000000 	4.000000 	0.000000 	0.000000 	0 	; 
 	26  	27  	  2800.0000000000 	181.0000000000 	 8.6666670000 	1.0000000000 	4.000000 	0.000000 	0.000000 	1 	; 
 	27  	24  	   900.0000000000 	 25.0000000000 	 0.6666670000 	1.0000000000 	4.000000 	0.000000 	0.000000 	1 	; 
 	27  	42  	  2800.0000000000 	408.0000000000 	22.0000000000 	1.0000000000 	4.000000 	0.000000 	0.000000 	1 	; 
 	27  	141 	   900.0000000000 	212.0000000000 	 8.3333330000 	1.0000000000 	4.000000 	0.000000 	0.000000 	1 	; 
 	28  	57  	  2800.0000000000 	308.0000000000 	11.3333330000 	1.0000000000 	4.000000 	0.000000 	0.000000 	1 	; 
 	29  	9   	999999.0000000000 	  0.0000000000 	 0.0000000000 	0.0000000000 	4.000000 	0.000000 	0.000000 	0 	; 
 	29  	18  	999999.0000000000 	  0.0000000000 	 0.0000000000 	0.0000000000 	4.000000 	0.000000 	0.000000 	0 	; 
 	29  	30  	  2800.0000000000 	182.0000000000 	11.6666670000 	1.0000000000 	4.000000 	0.000000 	0.000000 	1 	; 
 	29  	39  	  2800.0000000000 	 43.0000000000 	 1.0000000000 	1.0000000000 	4.000000 	0.000000 	0.000000 	1 	; 
 	30  	18  	999999.0000000000 	  0.0000000000 	 0.0000000000 	0.0000000000 	4.000000 	0.000000 	0.000000 	0 	; 
 	30  	36  	  2800.0000000000 	225.0000000000 	10.0000000000 	1.0000000000 	4.000000 	0.000000 	0.000000 	1 	; 
 	31  	1   	999999.0000000000 	  0.0000000000 	 0.0000000000 	0.0000000000 	4.000000 	0.000000 	0.000000 	0 	; 
 	31  	2   	999999.0000000000 	  0.0000000000 	 0.0000000000 	0.0000000000 	4.000000 	0.000000 	0.000000 	0 	; 
 	31  	40  	  2800.0000000000 	239.0000000000 	11.0000000000 	1.0000000000 	4.000000 	0.000000 	0.000000 	1 	; 
 	31  	216 	   600.0000000000 	210.0000000000 	11.0000000000 	1.0000000000 	4.000000 	0.000000 	0.000000 	1 	; 
 	32  	1   	999999.0000000000 	  0.0000000000 	 0.0000000000 	0.0000000000 	4.000000 	0.000000 	0.000000 	0 	; 
 	32  	2   	999999.0000000000 	  0.0000000000 	 0.0000000000 	0.0000000000 	4.000000 	0.000000 	0.000000 	0 	; 
 	32  	31  	   600.0000000000 	 35.0000000000 	 1.6666670000 	1.0000000000 	4.000000 	0.000000 	0.000000 	1 	; 
 	32  	38  	  2800.0000000000 	241.0000000000 	 8.3333330000 	1.0000000000 	4.000000 	0.000000 	0.000000 	1 	; 
 	33  	32  	  2800.0000000000 	199.0000000000 	12.6666670000 	1.0000000000 	4.000000 	0.000000 	0.000000 	1 	; 
 	34  	35  	  2400.0000000000 	 34.0000000000 	 0.6666670000 	1.0000000000 	4.000000 	0.000000 	0.000000 	1 	; 
 	35  	41  	  2800.0000000000 	 17.0000000000 	 0.6666670000 	1.0000000000 	4.000000 	0.000000 	0.000000 	1 	; 
 	35  	180 	  2400.0000000000 	138.0000000000 	 7.3333330000 	1.0000000000 	4.000000 	0.000000 	0.000000 	1 	; 
 	36  	37  	  2800.0000000000 	123.0000000000 	 3.6666670000 	1.0000000000 	4.000000 	0.000000 	0.000000 	1 	; 
 	36  	38  	   600.0000000000 	 35.0000000000 	 1.0000000000 	1.0000000000 	4.000000 	0.000000 	0.000000 	1 	; 
 	37  	2   	999999.0000000000 	  0.0000000000 	 0.0000000000 	0.0000000000 	4.000000 	0.000000 	0.000000 	0 	; 
 	37  	31  	  2800.0000000000 	118.0000000000 	15.3333330000 	1.0000000000 	4.000000 	0.000000 	0.000000 	1 	; 
 	38  	36  	   600.0000000000 	 35.0000000000 	 1.0000000000 	1.0000000000 	4.000000 	0.000000 	0.000000 	1 	; 
 	38  	39  	  2800.0000000000 	423.0000000000 	11.3333330000 	1.0000000000 	4.000000 	0.000000 	0.000000 	1 	; 
 	38  	162 	   600.0000000000 	 85.0000000000 	 3.0000000000 	1.0000000000 	4.000000 	0.000000 	0.000000 	1 	; 
 	39  	9   	999999.0000000000 	  0.0000000000 	 0.0000000000 	0.0000000000 	4.000000 	0.000000 	0.000000 	0 	; 
 	39  	18  	999999.0000000000 	  0.0000000000 	 0.0000000000 	0.0000000000 	4.000000 	0.000000 	0.000000 	0 	; 
 	39  	49  	  2800.0000000000 	 75.0000000000 	 3.3333330000 	1.0000000000 	4.000000 	0.000000 	0.000000 	1 	; 
 	40  	34  	  2800.0000000000 	 18.0000000000 	 0.3333330000 	1.0000000000 	4.000000 	0.000000 	0.000000 	1 	; 
 	40  	84  	  2400.0000000000 	215.0000000000 	 4.6666670000 	1.0000000000 	4.000000 	0.000000 	0.000000 	1 	; 
 	41  	33  	  2800.0000000000 	 37.0000000000 	 1.3333330000 	1.0000000000 	4.000000 	0.000000 	0.000000 	1 	; 
 	41  	40  	  2400.0000000000 	 34.0000000000 	 0.6666670000 	1.0000000000 	4.000000 	0.000000 	0.000000 	1 	; 
 	42  	3   	999999.0000000000 	  0.0000000000 	 0.0000000000 	0.0000000000 	4.000000 	0.000000 	0.000000 	0 	; 
 	42  	43  	  2800.0000000000 	 39.0000000000 	 2.6666670000 	1.0000000000 	4.000000 	0.000000 	0.000000 	1 	; 
 	42  	50  	  2800.0000000000 	 35.0000000000 	 1.6666670000 	1.0000000000 	4.000000 	0.000000 	0.000000 	1 	; 
 	43  	47  	  2800.0000000000 	223.0000000000 	 7.0000000000 	1.0000000000 	4.000000 	0.000000 	0.000000 	1 	; 
 	44  	3   	999999.0000000000 	  0.0000000000 	 0.0000000000 	0.0000000000 	4.000000 	0.000000 	0.000000 	0 	; 
 	44  	24  	  2800.0000000000 	401.0000000000 	14.3333330000 	1.0000000000 	4.000000 	0.000000 	0.000000 	1 	; 
 	44  	42  	  2800.0000000000 	 24.0000000000 	 1.6666670000 	1.0000000000 	4.000000 	0.000000 	0.000000 	1 	; 
 	45  	46  	   900.0000000000 	 33.0000000000 	 1.3333330000 	1.0000000000 	4.000000 	0.000000 	0.000000 	1 	; 
 	45  	60  	  2800.0000000000 	435.0000000000 	18.0000000000 	1.0000000000 	4.000000 	0.000000 	0.000000 	1 	; 
 	45  	187 	   900.0000000000 	176.0000000000 	 4.6666670000 	1.0000000000 	4.000000 	0.000000 	0.000000 	1 	; 
 	46  	45  	   900.0000000000 	 33.0000000000 	 1.0000000000 	1.0000000000 	4.000000 	0.000000 	0.000000 	1 	; 
 	46  	62  	  2800.0000000000 	196.0000000000 	 9.0000000000 	1.0000000000 	4.000000 	0.000000 	0.000000 	1 	; 
 	46  	95  	   900.0000000000 	296.0000000000 	10.6666670000 	1.0000000000 	4.000000 	0.000000 	0.000000 	1 	; 
 	47  	9   	999999.0000000000 	  0.0000000000 	 0.0000000000 	0.0000000000 	4.000000 	0.000000 	0.000000 	0 	; 
 	47  	18  	999999.0000000000 	  0.0000000000 	 0.0000000000 	0.0000000000 	4.000000 	0.000000 	0.000000 	0 	; 
 	47  	48  	  2800.0000000000 	 34.0000000000 	 0.6666670000 	1.0000000000 	4.000000 	0.000000 	0.000000 	1 	; 
 	48  	29  	  2800.0000000000 	 90.0000000000 	 5.0000000000 	1.0000000000 	4.000000 	0.000000 	0.000000 	1 	; 
 	49  	47  	  2800.0000000000 	 37.0000000000 	 0.6666670000 	1.0000000000 	4.000000 	0.000000 	0.000000 	1 	; 
 	49  	50  	  2800.0000000000 	254.0000000000 	21.6666670000 	1.0000000000 	4.000000 	0.000000 	0.000000 	1 	; 
 	50  	51  	  2800.0000000000 	 25.0000000000 	 1.0000000000 	1.0000000000 	4.000000 	0.000000 	0.000000 	1 	; 
 	50  	63  	  2800.0000000000 	302.0000000000 	 8.0000000000 	1.0000000000 	4.000000 	0.000000 	0.000000 	1 	; 
 	51  	44  	  2800.0000000000 	 33.0000000000 	 1.0000000000 	1.0000000000 	4.000000 	0.000000 	0.000000 	1 	; 
 	51  	45  	  2800.0000000000 	369.0000000000 	18.0000000000 	1.0000000000 	4.000000 	0.000000 	0.000000 	1 	; 
 	52  	20  	999999.0000000000 	  0.0000000000 	 0.0000000000 	0.0000000000 	4.000000 	0.000000 	0.000000 	0 	; 
 	53  	20  	999999.0000000000 	  0.0000000000 	 0.0000000000 	0.0000000000 	4.000000 	0.000000 	0.000000 	0 	; 
 	53  	46  	  2800.0000000000 	201.0000000000 	10.0000000000 	1.0000000000 	4.000000 	0.000000 	0.000000 	1 	; 
 	53  	52  	   900.0000000000 	 33.0000000000 	 0.6666670000 	1.0000000000 	4.000000 	0.000000 	0.000000 	1 	; 
 	53  	127 	   900.0000000000 	567.0000000000 	20.6666670000 	1.0000000000 	4.000000 	0.000000 	0.000000 	1 	; 
 	54  	23  	999999.0000000000 	  0.0000000000 	 0.0000000000 	0.0000000000 	4.000000 	0.000000 	0.000000 	0 	; 
 	54  	25  	  2800.0000000000 	403.0000000000 	19.6666670000 	1.0000000000 	4.000000 	0.000000 	0.000000 	1 	; 
 	54  	55  	   900.0000000000 	 26.0000000000 	 1.3333330000 	1.0000000000 	4.000000 	0.000000 	0.000000 	1 	; 
 	55  	54  	   900.0000000000 	 26.0000000000 	 1.6666670000 	1.0000000000 	4.000000 	0.000000 	0.000000 	1 	; 
 	55  	145 	   900.0000000000 	178.0000000000 	13.0000000000 	1.0000000000 	4.000000 	0.000000 	0.000000 	1 	; 
 	55  	222 	  2800.0000000000 	145.0000000000 	 5.0000000000 	1.0000000000 	4.000000 	0.000000 	0.000000 	1 	; 
 	56  	54  	  2800.0000000000 	 70.0000000000 	 4.0000000000 	1.0000000000 	4.000000 	0.000000 	0.000000 	1 	; 
 	57  	23  	999999.0000000000 	  0.0000000000 	 0.0000000000 	0.0000000000 	4.000000 	0.000000 	0.000000 	0 	; 
 	57  	55  	  2800.0000000000 	184.0000000000 	 9.6666670000 	1.0000000000 	4.000000 	0.000000 	0.000000 	1 	; 
 	57  	144 	   600.0000000000 	178.0000000000 	 7.3333330000 	1.0000000000 	4.000000 	0.000000 	0.000000 	1 	; 
 	58  	59  	  2800.0000000000 	148.0000000000 	 7.6666670000 	1.0000000000 	4.000000 	0.000000 	0.000000 	1 	; 
 	58  	122 	  2800.0000000000 	222.0000000000 	18.6666670000 	1.0000000000 	4.000000 	0.000000 	0.000000 	1 	; 
 	59  	53  	  2800.0000000000 	247.0000000000 	 9.3333330000 	1.0000000000 	4.000000 	0.000000 	0.000000 	1 	; 
 	59  	60  	   900.0000000000 	 37.0000000000 	 1.0000000000 	1.0000000000 	4.000000 	0.000000 	0.000000 	1 	; 
 	59  	93  	   900.0000000000 	101.0000000000 	 3.3333330000 	1.0000000000 	4.000000 	0.000000 	0.000000 	1 	; 
 	60  	20  	999999.0000000000 	  0.0000000000 	 0.0000000000 	0.0000000000 	4.000000 	0.000000 	0.000000 	0 	; 
 	60  	58  	  2800.0000000000 	156.0000000000 	15.0000000000 	1.0000000000 	4.000000 	0.000000 	0.000000 	1 	; 
 	60  	59  	   900.0000000000 	 37.0000000000 	 1.0000000000 	1.0000000000 	4.000000 	0.000000 	0.000000 	1 	; 
 	61  	3   	999999.0000000000 	  0.0000000000 	 0.0000000000 	0.0000000000 	4.000000 	0.000000 	0.000000 	0 	; 
 	61  	44  	  2800.0000000000 	163.0000000000 	19.6666670000 	1.0000000000 	4.000000 	0.000000 	0.000000 	1 	; 
 	62  	3   	999999.0000000000 	  0.0000000000 	 0.0000000000 	0.0000000000 	4.000000 	0.000000 	0.000000 	0 	; 
 	62  	61  	  2800.0000000000 	 12.0000000000 	 0.6666670000 	1.0000000000 	4.000000 	0.000000 	0.000000 	1 	; 
 	62  	82  	  2400.0000000000 	430.0000000000 	 9.0000000000 	1.0000000000 	4.000000 	0.000000 	0.000000 	1 	; 
 	63  	64  	  2800.0000000000 	589.0000000000 	16.6666670000 	1.0000000000 	4.000000 	0.000000 	0.000000 	1 	; 
 	64  	67  	  2800.0000000000 	 14.0000000000 	 0.3333330000 	1.0000000000 	4.000000 	0.000000 	0.000000 	1 	; 
 	64  	88  	   900.0000000000 	113.0000000000 	 5.6666670000 	1.0000000000 	4.000000 	0.000000 	0.000000 	1 	; 
 	65  	21  	999999.0000000000 	  0.0000000000 	 0.0000000000 	0.0000000000 	4.000000 	0.000000 	0.000000 	0 	; 
 	65  	51  	  2800.0000000000 	504.0000000000 	17.6666670000 	1.0000000000 	4.000000 	0.000000 	0.000000 	1 	; 
 	66  	64  	   900.0000000000 	 26.0000000000 	 1.0000000000 	1.0000000000 	4.000000 	0.000000 	0.000000 	1 	; 
 	66  	65  	  2800.0000000000 	401.0000000000 	11.3333330000 	1.0000000000 	4.000000 	0.000000 	0.000000 	1 	; 
 	66  	208 	   900.0000000000 	 85.0000000000 	 2.6666670000 	1.0000000000 	4.000000 	0.000000 	0.000000 	1 	; 
 	67  	66  	   900.0000000000 	 25.0000000000 	 2.3333330000 	1.0000000000 	4.000000 	0.000000 	0.000000 	1 	; 
 	67  	185 	  2800.0000000000 	276.0000000000 	 7.3333330000 	1.0000000000 	4.000000 	0.000000 	0.000000 	1 	; 
 	68  	13  	999999.0000000000 	  0.0000000000 	 0.0000000000 	0.0000000000 	4.000000 	0.000000 	0.000000 	0 	; 
 	68  	69  	   900.0000000000 	 11.0000000000 	 0.3333330000 	1.0000000000 	4.000000 	0.000000 	0.000000 	1 	; 
 	68  	77  	  2400.0000000000 	223.0000000000 	 6.0000000000 	1.0000000000 	4.000000 	0.000000 	0.000000 	1 	; 
 	68  	220 	   900.0000000000 	112.0000000000 	 2.6666670000 	1.0000000000 	4.000000 	0.000000 	0.000000 	1 	; 
 	69  	68  	   900.0000000000 	 11.0000000000 	 0.3333330000 	1.0000000000 	4.000000 	0.000000 	0.000000 	1 	; 
 	69  	72  	  2400.0000000000 	107.0000000000 	 3.3333330000 	1.0000000000 	4.000000 	0.000000 	0.000000 	1 	; 
 	69  	111 	   900.0000000000 	135.0000000000 	 3.3333330000 	1.0000000000 	4.000000 	0.000000 	0.000000 	1 	; 
 	70  	4   	999999.0000000000 	  0.0000000000 	 0.0000000000 	0.0000000000 	4.000000 	0.000000 	0.000000 	0 	; 
 	70  	71  	  2400.0000000000 	260.0000000000 	 5.3333330000 	1.0000000000 	4.000000 	0.000000 	0.000000 	1 	; 
 	70  	75  	   900.0000000000 	 18.0000000000 	 0.3333330000 	1.0000000000 	4.000000 	0.000000 	0.000000 	1 	; 
 	71  	4   	999999.0000000000 	  0.0000000000 	 0.0000000000 	0.0000000000 	4.000000 	0.000000 	0.000000 	0 	; 
 	71  	24  	   600.0000000000 	287.0000000000 	 7.3333330000 	1.0000000000 	4.000000 	0.000000 	0.000000 	1 	; 
 	71  	61  	  2400.0000000000 	323.0000000000 	 7.0000000000 	1.0000000000 	4.000000 	0.000000 	0.000000 	1 	; 
 	72  	13  	999999.0000000000 	  0.0000000000 	 0.0000000000 	0.0000000000 	4.000000 	0.000000 	0.000000 	0 	; 
 	72  	80  	  2400.0000000000 	166.0000000000 	 5.0000000000 	1.0000000000 	4.000000 	0.000000 	0.000000 	1 	; 
 	73  	5   	999999.0000000000 	  0.0000000000 	 0.0000000000 	0.0000000000 	4.000000 	0.000000 	0.000000 	0 	; 
 	73  	69  	  2400.0000000000 	186.0000000000 	 8.6666670000 	1.0000000000 	4.000000 	0.000000 	0.000000 	1 	; 
 	74  	10  	999999.0000000000 	  0.0000000000 	 0.0000000000 	0.0000000000 	4.000000 	0.000000 	0.000000 	0 	; 
 	74  	70  	  2400.0000000000 	128.0000000000 	 2.6666670000 	1.0000000000 	4.000000 	0.000000 	0.000000 	1 	; 
 	75  	4   	999999.0000000000 	  0.0000000000 	 0.0000000000 	0.0000000000 	4.000000 	0.000000 	0.000000 	0 	; 
 	75  	70  	   900.0000000000 	 18.0000000000 	 0.3333330000 	1.0000000000 	4.000000 	0.000000 	0.000000 	1 	; 
 	75  	76  	  2400.0000000000 	128.0000000000 	 2.6666670000 	1.0000000000 	4.000000 	0.000000 	0.000000 	1 	; 
 	75  	123 	   900.0000000000 	107.0000000000 	 2.6666670000 	1.0000000000 	4.000000 	0.000000 	0.000000 	1 	; 
 	76  	10  	999999.0000000000 	  0.0000000000 	 0.0000000000 	0.0000000000 	4.000000 	0.000000 	0.000000 	0 	; 
 	76  	79  	  2400.0000000000 	 89.0000000000 	 2.0000000000 	1.0000000000 	4.000000 	0.000000 	0.000000 	1 	; 
 	77  	5   	999999.0000000000 	  0.0000000000 	 0.0000000000 	0.0000000000 	4.000000 	0.000000 	0.000000 	0 	; 
 	77  	78  	  2400.0000000000 	 16.0000000000 	 0.3333330000 	1.0000000000 	4.000000 	0.000000 	0.000000 	1 	; 
 	78  	5   	999999.0000000000 	  0.0000000000 	 0.0000000000 	0.0000000000 	4.000000 	0.000000 	0.000000 	0 	; 
 	78  	96  	  2400.0000000000 	142.0000000000 	 9.0000000000 	1.0000000000 	4.000000 	0.000000 	0.000000 	1 	; 
 	79  	10  	999999.0000000000 	  0.0000000000 	 0.0000000000 	0.0000000000 	4.000000 	0.000000 	0.000000 	0 	; 
 	79  	68  	  2400.0000000000 	291.0000000000 	12.6666670000 	1.0000000000 	4.000000 	0.000000 	0.000000 	1 	; 
 	79  	80  	   900.0000000000 	 19.0000000000 	 0.3333330000 	1.0000000000 	4.000000 	0.000000 	0.000000 	1 	; 
 	79  	123 	   900.0000000000 	185.0000000000 	 4.6666670000 	1.0000000000 	4.000000 	0.000000 	0.000000 	1 	; 
 	80  	10  	999999.0000000000 	  0.0000000000 	 0.0000000000 	0.0000000000 	4.000000 	0.000000 	0.000000 	0 	; 
 	80  	79  	   900.0000000000 	 19.0000000000 	 0.3333330000 	1.0000000000 	4.000000 	0.000000 	0.000000 	1 	; 
 	80  	81  	  2400.0000000000 	 24.0000000000 	 0.6666670000 	1.0000000000 	4.000000 	0.000000 	0.000000 	1 	; 
 	81  	74  	  2400.0000000000 	 90.0000000000 	 2.3333330000 	1.0000000000 	4.000000 	0.000000 	0.000000 	1 	; 
 	82  	4   	999999.0000000000 	  0.0000000000 	 0.0000000000 	0.0000000000 	4.000000 	0.000000 	0.000000 	0 	; 
 	82  	75  	  2400.0000000000 	152.0000000000 	 3.3333330000 	1.0000000000 	4.000000 	0.000000 	0.000000 	1 	; 
 	84  	83  	  2400.0000000000 	104.0000000000 	 2.6666670000 	1.0000000000 	4.000000 	0.000000 	0.000000 	1 	; 
 	84  	85  	   900.0000000000 	 16.0000000000 	 0.3333330000 	1.0000000000 	4.000000 	0.000000 	0.000000 	1 	; 
 	84  	216 	   900.0000000000 	247.0000000000 	 6.3333330000 	1.0000000000 	4.000000 	0.000000 	0.000000 	1 	; 
 	85  	34  	  2400.0000000000 	218.0000000000 	 4.6666670000 	1.0000000000 	4.000000 	0.000000 	0.000000 	1 	; 
 	85  	84  	   900.0000000000 	 16.0000000000 	 0.3333330000 	1.0000000000 	4.000000 	0.000000 	0.000000 	1 	; 
 	86  	119 	  2800.0000000000 	213.0000000000 	 5.3333330000 	1.0000000000 	4.000000 	0.000000 	0.000000 	1 	; 
 	86  	120 	   900.0000000000 	252.0000000000 	12.6666670000 	1.0000000000 	4.000000 	0.000000 	0.000000 	1 	; 
 	86  	191 	  2800.0000000000 	456.0000000000 	13.0000000000 	1.0000000000 	4.000000 	0.000000 	0.000000 	1 	; 
 	87  	86  	  2800.0000000000 	161.0000000000 	 4.0000000000 	1.0000000000 	4.000000 	0.000000 	0.000000 	1 	; 
 	88  	17  	999999.0000000000 	  0.0000000000 	 0.0000000000 	0.0000000000 	4.000000 	0.000000 	0.000000 	0 	; 
 	88  	89  	   900.0000000000 	 20.0000000000 	 0.3333330000 	1.0000000000 	4.000000 	0.000000 	0.000000 	1 	; 
 	88  	91  	   900.0000000000 	 49.0000000000 	 1.6666670000 	1.0000000000 	4.000000 	0.000000 	0.000000 	1 	; 
 	88  	213 	   900.0000000000 	399.0000000000 	14.3333330000 	1.0000000000 	4.000000 	0.000000 	0.000000 	1 	; 
 	89  	17  	999999.0000000000 	  0.0000000000 	 0.0000000000 	0.0000000000 	4.000000 	0.000000 	0.000000 	0 	; 
 	89  	88  	   900.0000000000 	 20.0000000000 	 1.0000000000 	1.0000000000 	4.000000 	0.000000 	0.000000 	1 	; 
 	89  	90  	   900.0000000000 	 86.0000000000 	 6.3333330000 	1.0000000000 	4.000000 	0.000000 	0.000000 	1 	; 
 	90  	67  	   900.0000000000 	 29.0000000000 	 0.6666670000 	1.0000000000 	4.000000 	0.000000 	0.000000 	1 	; 
 	91  	160 	   600.0000000000 	519.0000000000 	23.6666670000 	1.0000000000 	4.000000 	0.000000 	0.000000 	1 	; 
 	92  	12  	999999.0000000000 	  0.0000000000 	 0.0000000000 	0.0000000000 	4.000000 	0.000000 	0.000000 	0 	; 
 	92  	59  	   900.0000000000 	286.0000000000 	 7.0000000000 	1.0000000000 	4.000000 	0.000000 	0.000000 	1 	; 
 	93  	125 	   900.0000000000 	465.0000000000 	11.6666670000 	1.0000000000 	4.000000 	0.000000 	0.000000 	1 	; 
 	94  	12  	999999.0000000000 	  0.0000000000 	 0.0000000000 	0.0000000000 	4.000000 	0.000000 	0.000000 	0 	; 
 	94  	53  	   900.0000000000 	227.0000000000 	 5.6666670000 	1.0000000000 	4.000000 	0.000000 	0.000000 	1 	; 
 	95  	46  	   900.0000000000 	296.0000000000 	 7.3333330000 	1.0000000000 	4.000000 	0.000000 	0.000000 	1 	; 
 	95  	129 	   900.0000000000 	182.0000000000 	 7.0000000000 	1.0000000000 	4.000000 	0.000000 	0.000000 	1 	; 
 	96  	5   	999999.0000000000 	  0.0000000000 	 0.0000000000 	0.0000000000 	4.000000 	0.000000 	0.000000 	0 	; 
 	96  	97  	   900.0000000000 	 16.0000000000 	 0.3333330000 	1.0000000000 	4.000000 	0.000000 	0.000000 	1 	; 
 	97  	73  	  2400.0000000000 	194.0000000000 	 5.6666670000 	1.0000000000 	4.000000 	0.000000 	0.000000 	1 	; 
 	97  	96  	   900.0000000000 	 16.0000000000 	 0.3333330000 	1.0000000000 	4.000000 	0.000000 	0.000000 	1 	; 
 	97  	133 	   900.0000000000 	202.0000000000 	 5.0000000000 	1.0000000000 	4.000000 	0.000000 	0.000000 	1 	; 
 	98  	108 	   600.0000000000 	 88.0000000000 	 2.3333330000 	1.0000000000 	4.000000 	0.000000 	0.000000 	1 	; 
 	99  	8   	999999.0000000000 	  0.0000000000 	 0.0000000000 	0.0000000000 	4.000000 	0.000000 	0.000000 	0 	; 