<NUMBER OF ZONES> 245
<TOTAL OD FLOW> 7.12506e+007
<END OF METADATA> 

Origin  1
	2 : 3300;	3 : 1500;	4 : 900;	5 : 600;	6 : 300;
	8 : 300;	9 : 600;	10 : 300;	16 : 300;	19 : 300;
	21 : 300;	22 : 300;	25 : 300;	26 : 900;	29 : 300;
	34 : 1500;	37 : 300;	40 : 300;	41 : 900;	42 : 300;
	43 : 300;	45 : 300;	48 : 300;	49 : 300;	50 : 600;
	51 : 300;	53 : 300;	65 : 600;	66 : 2100;	67 : 1500;
	68 : 300;	69 : 600;	70 : 1200;	71 : 300;	72 : 1800;
	74 : 1200;	75 : 300;	76 : 600;	83 : 300;	86 : 300;
	90 : 300;	158 : 1800;	159 : 900;	162 : 300;	165 : 300;
	167 : 4800;	168 : 2100;	169 : 6900;	170 : 1500;	172 : 300;
	173 : 900;	174 : 1500;	175 : 1200;	176 : 600;	178 : 900;
	180 : 7200;	181 : 1800;	183 : 300;	184 : 300;	185 : 16200;
	190 : 300;	191 : 2100;	192 : 1500;	193 : 33900;	194 : 14400;
	195 : 33300;	196 : 44100;	197 : 14400;	198 : 13200;	199 : 6600;
	200 : 2700;	201 : 36000;	202 : 900;	203 : 39600;	204 : 12000;
	205 : 2100;	206 : 13500;	207 : 18300;	208 : 600;	209 : 1200;
	210 : 5100;	211 : 1500;	212 : 900;	213 : 1800;	214 : 1200;
	215 : 300;	216 : 1500;	217 : 2400;	218 : 3300;	220 : 56400;
	221 : 600;	223 : 300;	224 : 6900;	225 : 300;	226 : 300;
	227 : 300;	229 : 1800;	230 : 600;	231 : 4800;	232 : 900;
	233 : 3000;	234 : 300;	235 : 900;	237 : 1500;	238 : 4800;
	239 : 1200;	240 : 2400;	241 : 300;	242 : 300;	243 : 300;
	244 : 3600;	245 : 600;
Origin  2
	1 : 2700;	3 : 1800;	4 : 600;	5 : 600;	8 : 300;
	9 : 300;	10 : 600;	16 : 300;	19 : 300;	20 : 300;
	25 : 300;	26 : 900;	28 : 300;	31 : 300;	34 : 900;
	35 : 300;	40 : 300;	41 : 900;	45 : 900;	48 : 300;
	49 : 600;	50 : 600;	51 : 300;	65 : 300;	66 : 900;
	67 : 600;	69 : 600;	70 : 600;	71 : 300;	72 : 1200;
	74 : 300;	75 : 300;	80 : 300;	86 : 300;	156 : 300;
	158 : 1200;	159 : 900;	165 : 900;	167 : 2400;	169 : 3900;
	173 : 2100;	174 : 1800;	175 : 900;	176 : 600;	178 : 600;
	180 : 2400;	181 : 300;	184 : 1200;	185 : 10200;	191 : 2100;
	192 : 1200;	193 : 19200;	194 : 8400;	195 : 22200;	196 : 26700;
	197 : 10200;	198 : 8100;	199 : 4200;	200 : 1500;	201 : 21600;
	202 : 600;	203 : 22800;	204 : 9300;	205 : 600;	206 : 12000;
	207 : 14400;	208 : 600;	209 : 1200;	210 : 4200;	211 : 1500;
	212 : 900;	213 : 1200;	214 : 1200;	215 : 600;	216 : 600;
	217 : 1800;	218 : 1800;	220 : 47400;	224 : 5700;	226 : 300;
	228 : 300;	229 : 900;	230 : 600;	231 : 3600;	232 : 600;
	233 : 2400;	234 : 600;	235 : 600;	237 : 1500;	238 : 1800;
	239 : 300;	240 : 1200;	244 : 2100;	245 : 300;
Origin  3
	1 : 1800;	2 : 1200;	4 : 3000;	5 : 600;	7 : 600;
	8 : 300;	10 : 300;	15 : 300;	18 : 300;	19 : 300;
	22 : 300;	25 : 600;	26 : 900;	27 : 600;	29 : 300;
	34 : 900;	40 : 300;	41 : 900;	42 : 300;	45 : 600;
	46 : 300;	50 : 300;	65 : 300;	66 : 600;	67 : 300;
	70 : 600;	71 : 300;	72 : 1200;	74 : 900;	78 : 300;
	80 : 300;	84 : 300;	90 : 600;	158 : 1500;	159 : 300;
	167 : 600;	168 : 600;	169 : 2100;	170 : 1200;	174 : 300;
	175 : 600;	176 : 900;	178 : 300;	180 : 2700;	181 : 600;
	184 : 600;	185 : 7200;	190 : 900;	191 : 1200;	192 : 1500;
	193 : 14100;	194 : 6600;	195 : 24000;	196 : 25500;	197 : 11700;
	198 : 8700;	199 : 3300;	200 : 1800;	201 : 12900;	202 : 300;
	203 : 11400;	204 : 9300;	205 : 1500;	206 : 13200;	207 : 14700;
	208 : 300;	209 : 900;	210 : 5100;	211 : 2100;	212 : 600;
	213 : 1200;	214 : 600;	215 : 300;	216 : 900;	217 : 1500;
	218 : 2400;	220 : 29700;	221 : 300;	222 : 300;	224 : 4200;
	226 : 300;	228 : 300;	229 : 900;	230 : 900;	231 : 4500;
	232 : 900;	233 : 2400;	234 : 300;	235 : 900;	237 : 1800;
	238 : 1800;	239 : 300;	240 : 600;	241 : 300;	244 : 1800;
	245 : 300;
Origin  4
	1 : 900;	2 : 900;	3 : 3300;	5 : 600;	7 : 300;
	9 : 300;	10 : 600;	14 : 300;	17 : 300;	18 : 300;
	19 : 300;	20 : 300;	22 : 300;	25 : 300;	26 : 600;
	27 : 600;	33 : 300;	34 : 600;	40 : 300;	41 : 600;
	44 : 300;	50 : 300;	52 : 300;	59 : 300;	66 : 300;
	67 : 300;	69 : 300;	70 : 600;	72 : 1200;	74 : 300;
	76 : 300;	90 : 300;	157 : 300;	158 : 900;	159 : 1200;
	162 : 300;	167 : 1200;	169 : 2100;	170 : 2100;	174 : 600;
	175 : 300;	176 : 600;	178 : 300;	180 : 1500;	181 : 300;
	184 : 300;	185 : 3900;	190 : 600;	191 : 600;	192 : 300;
	193 : 10200;	194 : 4800;	195 : 15900;	196 : 21300;	197 : 9600;
	198 : 6900;	199 : 2700;	200 : 1500;	201 : 8700;	202 : 300;
	203 : 8100;	204 : 6000;	205 : 1500;	206 : 9900;	207 : 10800;
	208 : 600;	209 : 600;	210 : 3900;	211 : 1800;	212 : 600;
	213 : 2100;	214 : 1200;	215 : 300;	216 : 900;	217 : 1200;
	218 : 2100;	219 : 300;	220 : 21900;	221 : 300;	222 : 600;
	224 : 2700;	226 : 300;	229 : 1200;	230 : 1200;	231 : 3900;
	232 : 1200;	233 : 1500;	234 : 600;	235 : 1200;	237 : 1200;
	238 : 900;	239 : 300;	240 : 600;	241 : 300;	242 : 300;
	244 : 600;
Origin  5
	2 : 300;	3 : 300;	4 : 300;	8 : 300;	9 : 300;
	10 : 300;	14 : 300;	16 : 300;	18 : 300;	20 : 600;
	22 : 300;	25 : 300;	26 : 600;	29 : 300;	34 : 300;
	40 : 300;	41 : 300;	45 : 300;	60 : 300;	66 : 300;
	67 : 300;	68 : 300;	70 : 300;	72 : 300;	74 : 900;
	75 : 300;	80 : 300;	93 : 300;	158 : 600;	159 : 300;
	164 : 300;	165 : 300;	167 : 600;	168 : 1800;	169 : 2100;
	170 : 900;	171 : 300;	174 : 900;	178 : 300;	180 : 300;
	181 : 300;	184 : 1200;	185 : 4500;	190 : 600;	191 : 300;
	192 : 300;	193 : 6900;	194 : 3000;	195 : 9300;	196 : 15900;
	197 : 11100;	198 : 5400;	199 : 2400;	200 : 900;	201 : 5700;
	202 : 600;	203 : 3600;	204 : 3600;	205 : 600;	206 : 3900;
	207 : 4800;	209 : 600;	210 : 3900;	211 : 2700;	212 : 900;
	213 : 900;	214 : 1200;	215 : 300;	216 : 900;	217 : 3900;
	218 : 2100;	219 : 300;	220 : 9900;	221 : 600;	222 : 600;
	224 : 1200;	225 : 300;	226 : 300;	228 : 600;	229 : 900;
	230 : 900;	231 : 3300;	232 : 600;	233 : 900;	234 : 300;
	235 : 300;	237 : 600;	238 : 300;	240 : 900;	241 : 300;
	244 : 600;	245 : 300;
Origin  6
	1 : 300;	5 : 300;	8 : 600;	10 : 300;	11 : 300;
	12 : 300;	17 : 300;	18 : 300;	20 : 300;	22 : 300;
	26 : 300;	45 : 300;	50 : 300;	53 : 600;	66 : 300;
	70 : 300;	87 : 300;	98 : 6900;	158 : 300;	164 : 300;
	168 : 900;	169 : 1200;	180 : 300;	184 : 5400;	185 : 300;
	186 : 300;	192 : 300;	193 : 2700;	194 : 600;	195 : 1800;
	196 : 4200;	197 : 2400;	198 : 3900;	199 : 600;	200 : 1200;
	201 : 600;	202 : 300;	203 : 600;	204 : 300;	205 : 300;
	206 : 1500;	207 : 1200;	208 : 300;	211 : 900;	213 : 300;
	214 : 900;	215 : 900;	216 : 900;	217 : 900;	218 : 900;
	220 : 2100;	221 : 300;	224 : 300;	225 : 600;	229 : 300;
	230 : 300;	231 : 900;	233 : 300;	234 : 300;	235 : 300;
	236 : 600;	237 : 300;	238 : 900;	242 : 300;
Origin  7
	1 : 300;	2 : 300;	5 : 300;	6 : 300;	8 : 900;
	9 : 600;	10 : 900;	11 : 300;	20 : 300;	26 : 300;
	34 : 300;	41 : 300;	43 : 300;	50 : 300;	53 : 300;
	55 : 300;	67 : 300;	68 : 300;	72 : 300;	74 : 300;
	83 : 300;	134 : 5100;	158 : 900;	162 : 300;	163 : 300;
	164 : 600;	167 : 600;	168 : 900;	169 : 2400;	171 : 600;
	174 : 600;	176 : 300;	180 : 300;	184 : 5400;	185 : 2100;
	186 : 900;	190 : 300;	191 : 300;	192 : 300;	193 : 5100;
	194 : 1200;	195 : 4200;	196 : 8400;	197 : 5100;	198 : 4800;
	199 : 1800;	200 : 1200;	201 : 3000;	202 : 300;	203 : 2400;
	204 : 1200;	205 : 900;	206 : 2400;	207 : 3300;	209 : 300;
	210 : 1500;	211 : 600;	212 : 600;	213 : 1500;	214 : 2400;
	215 : 1200;	216 : 2100;	217 : 2400;	218 : 1800;	219 : 300;
	220 : 6000;	222 : 900;	224 : 300;	225 : 900;	226 : 600;
	228 : 300;	229 : 1200;	230 : 300;	231 : 2100;	232 : 600;
	233 : 900;	235 : 300;	238 : 300;	241 : 300;	242 : 300;
	243 : 300;	244 : 300;	245 : 300;
Origin  8
	1 : 300;	2 : 300;	4 : 300;	5 : 600;	7 : 900;
	9 : 1200;	10 : 2100;	11 : 900;	14 : 300;	16 : 300;
	17 : 300;	18 : 300;	20 : 600;	25 : 300;	26 : 300;
	27 : 300;	29 : 300;	34 : 600;	41 : 300;	43 : 300;
	45 : 300;	50 : 300;	53 : 300;	60 : 300;	66 : 300;
	70 : 300;	72 : 300;	74 : 300;	90 : 300;	95 : 11100;
	156 : 300;	157 : 1200;	158 : 600;	160 : 300;	162 : 900;
	168 : 900;	169 : 3000;	171 : 2100;	174 : 300;	180 : 1500;
	183 : 600;	184 : 5100;	185 : 2100;	186 : 300;	188 : 900;
	190 : 300;	193 : 6000;	194 : 2100;	195 : 6000;	196 : 8700;
	197 : 4200;	198 : 5700;	199 : 2100;	200 : 2400;	201 : 3900;
	202 : 600;	203 : 2100;	204 : 2400;	205 : 600;	206 : 2400;
	207 : 4500;	208 : 300;	209 : 600;	210 : 1800;	211 : 1200;
	212 : 900;	213 : 900;	214 : 1500;	215 : 900;	216 : 1500;
	217 : 2700;	218 : 2700;	219 : 300;	220 : 8700;	221 : 300;
	222 : 300;	224 : 900;	225 : 1200;	226 : 900;	227 : 300;
	228 : 300;	229 : 2100;	230 : 300;	231 : 2400;	232 : 900;
	233 : 600;	235 : 600;	237 : 300;	238 : 300;	240 : 600;
	241 : 300;	242 : 600;	244 : 600;
Origin  9
	2 : 300;	10 : 300;	15 : 300;	60 : 300;	70 : 300;
	158 : 600;	162 : 300;	184 : 600;	185 : 300;	193 : 600;
	194 : 300;	195 : 600;	196 : 300;	197 : 1500;	198 : 300;
	199 : 300;	201 : 600;	203 : 300;	206 : 300;	211 : 300;
	215 : 300;	217 : 300;	218 : 300;	220 : 600;	222 : 300;
	229 : 300;	239 : 300;
Origin  10
	1 : 600;	2 : 900;	3 : 600;	5 : 600;	6 : 300;
	7 : 1200;	8 : 2400;	9 : 3300;	11 : 900;	12 : 2100;
	14 : 600;	16 : 300;	17 : 600;	18 : 300;	19 : 300;
	20 : 300;	22 : 300;	24 : 300;	25 : 300;	26 : 900;
	27 : 300;	29 : 300;	31 : 300;	34 : 600;	40 : 300;
	41 : 600;	45 : 300;	49 : 300;	50 : 300;	53 : 1800;
	54 : 600;	55 : 300;	56 : 300;	65 : 300;	66 : 900;
	67 : 900;	70 : 600;	71 : 300;	72 : 900;	74 : 300;
	76 : 300;	80 : 300;	90 : 300;	93 : 600;	96 : 2700;
	157 : 1500;	158 : 3900;	160 : 300;	162 : 1500;	163 : 300;
	164 : 1500;	168 : 1500;	169 : 5400;	171 : 5100;	174 : 900;
	175 : 300;	176 : 300;	177 : 300;	178 : 900;	180 : 300;
	183 : 1200;	184 : 11700;	185 : 4500;	186 : 300;	188 : 300;
	191 : 300;	192 : 900;	193 : 12600;	194 : 3900;	195 : 10800;
	196 : 19200;	197 : 10800;	198 : 12300;	199 : 3900;	200 : 2400;
	201 : 8100;	202 : 600;	203 : 4800;	204 : 3900;	205 : 1500;
	206 : 8400;	207 : 9900;	208 : 300;	209 : 900;	210 : 3600;
	211 : 1800;	212 : 1800;	213 : 3300;	214 : 2700;	215 : 1800;
	216 : 3000;	217 : 6300;	218 : 5100;	219 : 900;	220 : 18300;
	221 : 300;	222 : 2400;	223 : 300;	224 : 1800;	225 : 2400;
	226 : 2400;	228 : 1200;	229 : 6600;	230 : 900;	231 : 6000;
	232 : 1500;	233 : 2400;	234 : 900;	235 : 900;	237 : 600;
	238 : 900;	239 : 300;	240 : 600;	241 : 600;	242 : 600;
	243 : 300;	244 : 600;	245 : 600;
Origin  11
	2 : 300;	3 : 300;	7 : 600;	8 : 900;	9 : 600;
	10 : 900;	12 : 900;	15 : 300;	16 : 300;	17 : 300;
	18 : 300;	19 : 300;	26 : 300;	34 : 300;	40 : 300;
	41 : 300;	53 : 600;	54 : 300;	60 : 600;	66 : 300;
	70 : 300;	72 : 300;	74 : 300;	95 : 9000;	157 : 600;
	158 : 900;	160 : 300;	162 : 600;	163 : 300;	164 : 300;
	168 : 1500;	169 : 2400;	171 : 2100;	172 : 300;	175 : 300;
	183 : 300;	184 : 6900;	185 : 2700;	192 : 300;	193 : 5700;
	194 : 1800;	195 : 4800;	196 : 6900;	197 : 3900;	198 : 4500;
	199 : 2700;	200 : 600;	201 : 2700;	202 : 600;	203 : 1800;
	204 : 1200;	205 : 600;	206 : 3600;	207 : 3900;	210 : 1800;
	211 : 900;	212 : 1200;	213 : 900;	214 : 1800;	215 : 1200;
	216 : 1200;	217 : 3000;	218 : 2700;	219 : 600;	220 : 8100;
	221 : 300;	222 : 600;	224 : 600;	225 : 1200;	226 : 600;
	227 : 300;	228 : 300;	229 : 2400;	230 : 600;	231 : 2400;
	232 : 600;	233 : 900;	235 : 300;	237 : 600;	238 : 300;
	240 : 600;	241 : 300;	242 : 300;	243 : 300;
Origin  12
	1 : 300;	2 : 300;	7 : 900;	8 : 1200;	9 : 900;
	10 : 1200;	11 : 600;	13 : 300;	14 : 600;	17 : 300;
	19 : 300;	20 : 300;	22 : 600;	25 : 300;	26 : 300;
	27 : 300;	34 : 300;	40 : 300;	41 : 300;	50 : 300;
	53 : 600;	54 : 300;	55 : 600;	66 : 300;	70 : 300;
	85 : 300;	93 : 600;	96 : 300;	164 : 300;	168 : 2100;
	169 : 3000;	171 : 2400;	174 : 300;	175 : 300;	178 : 300;
	180 : 600;	183 : 300;	184 : 6300;	185 : 300;	186 : 600;
	190 : 300;	191 : 600;	192 : 600;	193 : 6900;	194 : 2100;
	195 : 5100;	196 : 9000;	197 : 4200;	198 : 6000;	199 : 3000;
	200 : 1500;	201 : 4200;	202 : 300;	203 : 2100;	204 : 900;
	205 : 600;	206 : 3600;	207 : 3600;	210 : 1500;	211 : 600;
	212 : 300;	213 : 600;	214 : 1200;	215 : 900;	216 : 1500;
	217 : 1800;	218 : 2400;	219 : 300;	220 : 5700;	221 : 600;
	222 : 600;	223 : 300;	224 : 600;	225 : 1500;	226 : 600;
	228 : 300;	229 : 1500;	230 : 300;	231 : 2400;	232 : 300;
	233 : 600;	234 : 300;	236 : 300;	237 : 600;	238 : 300;
	240 : 300;	243 : 300;	244 : 300;	245 : 300;
Origin  13
	1 : 300;	4 : 300;	9 : 300;	10 : 300;	19 : 600;
	20 : 300;	29 : 300;	41 : 300;	44 : 300;	48 : 300;
	53 : 900;	57 : 600;	66 : 300;	67 : 300;	123 : 3000;
	157 : 300;	158 : 600;	162 : 300;	163 : 1200;	164 : 600;
	168 : 900;	169 : 900;	171 : 3000;	174 : 600;	175 : 300;
	176 : 300;	178 : 300;	184 : 2400;	185 : 300;	191 : 300;
	193 : 4200;	194 : 1500;	195 : 3000;	196 : 2700;	197 : 2700;
	198 : 1800;	199 : 900;	200 : 900;	201 : 2400;	203 : 600;
	204 : 300;	206 : 300;	207 : 1200;	210 : 600;	211 : 300;
	213 : 900;	214 : 600;	215 : 300;	216 : 600;	217 : 600;
	218 : 900;	220 : 1800;	222 : 600;	223 : 1200;	224 : 300;
	225 : 12600;	226 : 300;	228 : 300;	229 : 600;	230 : 300;
	231 : 300;	233 : 300;	238 : 600;	239 : 300;	242 : 600;
	243 : 300;	244 : 300;
Origin  14
	9 : 600;	10 : 300;	11 : 300;	12 : 300;	15 : 1200;
	16 : 900;	17 : 1200;	18 : 600;	19 : 300;	20 : 300;
	22 : 300;	25 : 300;	29 : 300;	34 : 600;	38 : 300;
	41 : 300;	48 : 300;	50 : 300;	53 : 600;	54 : 300;
	56 : 300;	57 : 300;	60 : 300;	61 : 300;	65 : 300;
	69 : 300;	70 : 300;	72 : 300;	157 : 1200;	158 : 900;
	161 : 1200;	163 : 1800;	164 : 1500;	165 : 300;	168 : 1500;
	169 : 1200;	171 : 1200;	174 : 300;	175 : 300;	176 : 600;
	180 : 300;	183 : 600;	184 : 4500;	185 : 2100;	186 : 300;
	190 : 300;	191 : 600;	192 : 600;	193 : 5100;	194 : 900;
	195 : 3600;	196 : 4500;	197 : 2700;	198 : 1800;	199 : 300;
	200 : 900;	201 : 1800;	203 : 1200;	204 : 600;	205 : 300;
	206 : 600;	207 : 1200;	209 : 300;	210 : 900;	211 : 900;
	212 : 600;	213 : 300;	214 : 900;	215 : 300;	216 : 600;
	217 : 300;	218 : 900;	220 : 3900;	222 : 13800;	223 : 300;
	224 : 300;	225 : 900;	226 : 11100;	227 : 2700;	228 : 6600;
	229 : 6900;	230 : 900;	231 : 2100;	232 : 600;	233 : 300;
	234 : 300;	235 : 600;	237 : 300;	239 : 600;	242 : 600;
	243 : 300;	245 : 300;
Origin  15
	3 : 300;	8 : 300;	9 : 300;	10 : 600;	12 : 300;
	14 : 3300;	16 : 1200;	17 : 1200;	18 : 1800;	19 : 300;
	20 : 300;	21 : 300;	22 : 900;	23 : 300;	25 : 300;
	26 : 300;	29 : 300;	31 : 300;	34 : 600;	38 : 300;
	48 : 600;	53 : 600;	55 : 300;	61 : 600;	65 : 600;
	66 : 600;	67 : 300;	70 : 600;	71 : 300;	72 : 900;
	119 : 2400;	157 : 600;	158 : 1500;	160 : 300;	162 : 12000;
	163 : 300;	164 : 900;	168 : 1500;	169 : 1500;	171 : 3300;
	174 : 900;	175 : 600;	176 : 300;	178 : 900;	179 : 300;
	180 : 900;	182 : 300;	183 : 300;	184 : 2100;	185 : 6900;
	186 : 300;	188 : 900;	190 : 300;	191 : 1200;	192 : 300;
	193 : 6600;	194 : 1800;	195 : 6000;	196 : 6600;	197 : 3600;
	198 : 4500;	199 : 3300;	200 : 1500;	201 : 3000;	202 : 300;
	203 : 2100;	204 : 1500;	206 : 2100;	207 : 3000;	209 : 300;
	210 : 1500;	211 : 1200;	213 : 600;	214 : 1200;	216 : 1200;
	217 : 1500;	218 : 1200;	219 : 300;	220 : 5400;	221 : 300;
	222 : 22200;	224 : 1200;	225 : 300;	226 : 26100;	227 : 10200;
	228 : 7500;	229 : 19200;	230 : 1800;	231 : 3900;	232 : 1200;
	233 : 900;	235 : 600;	237 : 300;	238 : 300;	239 : 300;
	240 : 300;	242 : 1500;	243 : 300;	245 : 300;
Origin  16
	3 : 300;	5 : 600;	6 : 300;	7 : 600;	8 : 300;
	9 : 300;	10 : 300;	14 : 2100;	15 : 600;	17 : 6300;
	18 : 600;	19 : 300;	25 : 300;	26 : 300;	29 : 300;
	38 : 300;	41 : 300;	42 : 300;	45 : 300;	48 : 300;
	49 : 300;	51 : 300;	53 : 300;	56 : 300;	57 : 300;
	58 : 300;	59 : 300;	60 : 300;	65 : 300;	66 : 300;
	67 : 300;	70 : 300;	71 : 300;	72 : 600;	75 : 300;
	78 : 300;	122 : 4500;	157 : 5400;	158 : 5700;	161 : 8100;
	163 : 1500;	168 : 2100;	169 : 900;	171 : 5700;	175 : 900;
	176 : 900;	179 : 300;	184 : 1500;	185 : 6600;	188 : 1200;
	190 : 600;	191 : 900;	192 : 600;	193 : 6600;	194 : 1800;
	195 : 6300;	196 : 7200;	197 : 4200;	198 : 3300;	199 : 600;
	200 : 1200;	201 : 3600;	203 : 2100;	204 : 1200;	205 : 300;
	206 : 1800;	207 : 3000;	210 : 1800;	211 : 900;	212 : 300;
	213 : 900;	214 : 600;	215 : 300;	216 : 900;	217 : 1200;
	218 : 600;	220 : 6300;	221 : 300;	222 : 11700;	223 : 300;
	224 : 1200;	225 : 600;	226 : 14400;	227 : 3900;	228 : 33000;
	229 : 8700;	230 : 900;	231 : 3600;	232 : 1200;	233 : 900;
	235 : 300;	237 : 300;	238 : 300;	241 : 600;	242 : 1800;
	243 : 1200;	244 : 300;
Origin  17
	2 : 300;	3 : 600;	9 : 300;	10 : 300;	12 : 300;
	14 : 2100;	15 : 600;	16 : 3900;	18 : 300;	19 : 300;
	20 : 300;	22 : 300;	27 : 300;	31 : 300;	38 : 300;
	53 : 300;	54 : 600;	56 : 300;	57 : 300;	65 : 300;
	66 : 300;	70 : 300;	71 : 300;	72 : 300;	74 : 300;
	80 : 300;	122 : 1800;	157 : 600;	158 : 900;	161 : 1500;
	163 : 600;	164 : 1200;	168 : 2400;	169 : 900;	171 : 5400;
	175 : 300;	176 : 300;	184 : 2100;	185 : 2700;	191 : 600;
	192 : 300;	193 : 3000;	194 : 900;	195 : 2700;	196 : 3600;
	197 : 1500;	198 : 1800;	199 : 1500;	200 : 900;	201 : 900;
	203 : 600;	204 : 900;	205 : 300;	206 : 1200;	207 : 1500;
	210 : 600;	211 : 300;	214 : 600;	215 : 300;	216 : 300;
	217 : 900;	218 : 300;	220 : 2700;	221 : 300;	222 : 7800;
	224 : 300;	225 : 900;	226 : 8100;	227 : 2400;	228 : 20100;
	229 : 5100;	230 : 600;	231 : 1800;	233 : 1200;	235 : 300;
	237 : 300;	241 : 600;	242 : 600;	244 : 300;
Origin  18
	5 : 300;	6 : 300;	9 : 300;	10 : 300;	11 : 300;
	13 : 300;	14 : 600;	15 : 600;	16 : 300;	17 : 300;
	19 : 600;	20 : 300;	22 : 1200;	23 : 300;	25 : 300;
	26 : 300;	27 : 300;	29 : 300;	34 : 300;	38 : 300;
	45 : 300;	52 : 300;	53 : 300;	61 : 300;	67 : 300;
	68 : 300;	70 : 300;	72 : 600;	74 : 300;	119 : 2400;
	156 : 600;	157 : 300;	158 : 1200;	160 : 300;	162 : 3600;
	163 : 300;	164 : 900;	168 : 1800;	169 : 1200;	171 : 3000;
	172 : 300;	174 : 1200;	176 : 300;	177 : 300;	178 : 300;
	180 : 2700;	183 : 1500;	184 : 1800;	185 : 5400;	186 : 600;
	188 : 900;	191 : 600;	192 : 600;	193 : 7200;	194 : 1800;
	195 : 5100;	196 : 6300;	197 : 3600;	198 : 3000;	199 : 1800;
	200 : 300;	201 : 3000;	202 : 300;	203 : 1800;	204 : 1500;
	205 : 600;	206 : 2100;	207 : 3000;	210 : 1500;	211 : 900;
	212 : 600;	213 : 600;	214 : 600;	215 : 900;	216 : 300;
	217 : 900;	218 : 1500;	220 : 6300;	221 : 300;	222 : 4800;
	224 : 600;	225 : 300;	226 : 7800;	227 : 2100;	228 : 1800;
	229 : 48000;	230 : 2100;	231 : 3600;	232 : 900;	233 : 1200;
	234 : 300;	235 : 300;	237 : 300;	238 : 300;	239 : 300;
	240 : 1500;	241 : 600;	242 : 300;	244 : 300;
Origin  19
	1 : 600;	2 : 300;	3 : 300;	4 : 300;	5 : 600;
	6 : 300;	7 : 300;	8 : 300;	9 : 600;	10 : 300;
	11 : 300;	12 : 600;	14 : 300;	16 : 300;	17 : 300;
	18 : 600;	20 : 1800;	21 : 300;	22 : 1800;	23 : 300;
	24 : 300;	25 : 2700;	26 : 2100;	27 : 300;	29 : 300;
	30 : 300;	33 : 300;	34 : 1500;	38 : 600;	39 : 600;
	40 : 300;	41 : 1500;	42 : 300;	45 : 300;	48 : 300;
	49 : 300;	50 : 300;	51 : 300;	52 : 300;	53 : 300;
	65 : 1200;	66 : 900;	67 : 300;	68 : 300;	69 : 600;
	70 : 1800;	72 : 1200;	74 : 600;	80 : 300;	83 : 300;
	86 : 300;	87 : 300;	92 : 300;	118 : 9600;	156 : 900;
	158 : 2400;	159 : 1800;	160 : 300;	162 : 6600;	163 : 300;
	164 : 900;	165 : 600;	167 : 900;	168 : 2400;	169 : 2700;
	170 : 600;	171 : 2700;	174 : 1500;	175 : 300;	176 : 1500;
	178 : 300;	179 : 300;	180 : 8400;	181 : 900;	183 : 1500;
	184 : 2100;	185 : 13200;	188 : 600;	190 : 600;	191 : 2700;
	192 : 1200;	193 : 15900;	194 : 6300;	195 : 17100;	196 : 18000;
	197 : 11700;	198 : 7800;	199 : 3300;	200 : 1800;	201 : 7200;
	202 : 300;	203 : 5100;	204 : 3600;	205 : 1500;	206 : 6900;
	207 : 9600;	208 : 600;	210 : 6600;	211 : 2700;	212 : 600;
	213 : 1200;	214 : 600;	215 : 1200;	216 : 1200;	217 : 3600;
	218 : 3300;	219 : 300;	220 : 15900;	221 : 600;	222 : 3300;
	224 : 3900;	225 : 1500;	226 : 4500;	227 : 600;	228 : 1500;
	229 : 20700;	230 : 8100;	231 : 20700;	232 : 5400;	233 : 4500;
	234 : 900;	235 : 2400;	236 : 300;	237 : 1200;	238 : 1200;
	239 : 1200;	240 : 900;	241 : 600;	242 : 600;	243 : 300;
	244 : 300;	245 : 600;
Origin  20
	2 : 300;	3 : 300;	5 : 300;	8 : 900;	9 : 300;
	10 : 300;	11 : 300;	15 : 300;	16 : 300;	18 : 300;
	19 : 1800;	21 : 1200;	22 : 3900;	23 : 300;	24 : 300;
	25 : 1200;	26 : 1800;	27 : 600;	29 : 300;	30 : 300;
	34 : 600;	40 : 300;	41 : 300;	47 : 300;	48 : 300;
	49 : 300;	68 : 300;	69 : 600;	70 : 600;	72 : 900;
	74 : 600;	117 : 4500;	157 : 300;	158 : 2700;	162 : 1200;
	163 : 300;	164 : 300;	167 : 300;	168 : 300;	169 : 900;
	171 : 2700;	174 : 900;	175 : 300;	177 : 300;	178 : 600;
	180 : 3300;	183 : 1500;	184 : 1200;	185 : 5700;	191 : 300;
	192 : 900;	193 : 6300;	194 : 3000;	195 : 7800;	196 : 9000;
	197 : 5400;	198 : 2400;	199 : 1800;	200 : 900;	201 : 2400;
	202 : 300;	203 : 2100;	204 : 1200;	205 : 900;	206 : 3000;
	207 : 4200;	208 : 300;	210 : 3900;	211 : 900;	212 : 600;
	213 : 900;	214 : 900;	215 : 300;	216 : 1200;	217 : 2400;
	218 : 1200;	220 : 6300;	222 : 2400;	224 : 1200;	225 : 300;
	226 : 2100;	227 : 900;	228 : 600;	229 : 14400;	230 : 25800;
	231 : 8100;	232 : 2700;	233 : 2100;	235 : 600;	237 : 300;
	238 : 600;	240 : 300;	242 : 600;	243 : 300;	244 : 600;

Origin  21
	2 : 300;	6 : 300;	8 : 300;	10 : 300;	14 : 300;
	19 : 300;	20 : 900;	22 : 19500;	23 : 1500;	24 : 900;
	25 : 600;	26 : 1500;	27 : 300;	29 : 900;	31 : 300;
	34 : 600;	41 : 600;	45 : 300;	57 : 300;	67 : 300;
	69 : 300;	70 : 600;	71 : 300;	72 : 300;	74 : 300;
	88 : 300;	93 : 300;	117 : 1800;	158 : 1200;	159 : 300;
	162 : 300;	163 : 300;	167 : 300;	168 : 300;	171 : 600;
	174 : 300;	176 : 300;	180 : 600;	183 : 900;	184 : 900;
	185 : 2100;	190 : 600;	192 : 600;	193 : 2100;	194 : 1200;
	195 : 2400;	196 : 3600;	197 : 1800;	198 : 1800;	199 : 600;
	201 : 2100;	203 : 1200;	204 : 1200;	205 : 600;	206 : 2400;
	207 : 2700;	210 : 1200;	211 : 300;	212 : 600;	213 : 600;
	214 : 600;	215 : 600;	216 : 300;	217 : 600;	218 : 900;
	220 : 3600;	221 : 300;	222 : 600;	224 : 600;	226 : 600;
	228 : 300;	229 : 2400;	230 : 3000;	231 : 3900;	232 : 1500;
	233 : 2100;	234 : 600;	235 : 1200;	237 : 300;	239 : 300;
	244 : 300;
Origin  22
	1 : 300;	2 : 300;	3 : 300;	5 : 600;	8 : 300;
	9 : 300;	10 : 300;	11 : 300;	14 : 300;	15 : 300;
	17 : 300;	18 : 300;	19 : 900;	20 : 1200;	21 : 9300;
	23 : 5700;	24 : 2700;	25 : 1500;	26 : 5700;	27 : 2400;
	28 : 300;	29 : 2100;	30 : 300;	31 : 300;	34 : 2700;
	39 : 300;	40 : 600;	41 : 1200;	42 : 300;	48 : 600;
	54 : 300;	65 : 300;	66 : 300;	67 : 300;	68 : 300;
	69 : 300;	70 : 600;	72 : 1500;	74 : 300;	75 : 600;
	80 : 300;	83 : 300;	91 : 300;	92 : 600;	117 : 6000;
	156 : 600;	158 : 2700;	159 : 300;	162 : 1200;	163 : 300;
	164 : 300;	167 : 300;	168 : 1500;	169 : 1200;	171 : 2400;
	175 : 600;	176 : 600;	178 : 900;	179 : 300;	180 : 3000;
	181 : 300;	183 : 6000;	184 : 1500;	185 : 5400;	188 : 300;
	190 : 900;	191 : 900;	192 : 1500;	193 : 7500;	194 : 3300;
	195 : 8700;	196 : 10500;	197 : 6600;	198 : 4200;	199 : 2100;
	200 : 900;	201 : 4200;	203 : 3000;	204 : 2100;	205 : 900;
	206 : 6600;	207 : 8100;	208 : 900;	209 : 600;	210 : 3000;
	211 : 1200;	212 : 300;	213 : 1800;	214 : 600;	215 : 300;
	216 : 900;	217 : 1800;	218 : 1800;	219 : 300;	220 : 11100;
	222 : 1200;	224 : 1800;	226 : 2100;	227 : 300;	228 : 600;
	229 : 6600;	230 : 7800;	231 : 12000;	232 : 4500;	233 : 6900;
	234 : 1800;	235 : 6600;	236 : 300;	237 : 900;	239 : 600;
	240 : 600;	241 : 300;	242 : 300;	244 : 1200;	245 : 300;

Origin  23
	2 : 300;	3 : 300;	7 : 300;	19 : 300;	21 : 2100;
	22 : 15900;	24 : 900;	25 : 300;	26 : 1200;	27 : 900;
	29 : 1200;	30 : 300;	33 : 300;	34 : 600;	40 : 300;
	41 : 300;	45 : 300;	66 : 300;	67 : 300;	68 : 300;
	70 : 600;	72 : 300;	74 : 300;	76 : 300;	89 : 300;
	92 : 300;	93 : 300;	110 : 1800;	158 : 600;	159 : 600;
	162 : 900;	167 : 300;	168 : 300;	169 : 600;	171 : 900;
	176 : 300;	180 : 300;	181 : 300;	183 : 1800;	184 : 300;
	185 : 1200;	190 : 300;	191 : 600;	192 : 600;	193 : 3300;
	194 : 900;	195 : 3600;	196 : 3900;	197 : 1800;	198 : 1800;
	199 : 600;	200 : 300;	201 : 600;	203 : 300;	204 : 900;
	205 : 300;	206 : 1800;	207 : 2700;	208 : 300;	209 : 300;
	210 : 1200;	211 : 300;	212 : 600;	214 : 300;	216 : 300;
	217 : 1200;	218 : 300;	219 : 300;	220 : 3000;	222 : 300;
	224 : 600;	226 : 900;	228 : 600;	229 : 1800;	230 : 2100;
	231 : 3300;	232 : 1200;	233 : 2100;	234 : 600;	235 : 2100;
	237 : 300;	239 : 300;	240 : 300;	244 : 300;	245 : 300;

Origin  24
	8 : 600;	14 : 300;	19 : 300;	21 : 1200;	22 : 9300;
	23 : 900;	25 : 600;	26 : 1200;	27 : 600;	29 : 300;
	34 : 300;	41 : 300;	48 : 300;	57 : 300;	74 : 300;
	92 : 300;	115 : 300;	158 : 300;	162 : 300;	168 : 900;
	169 : 900;	170 : 600;	171 : 300;	178 : 300;	180 : 600;
	183 : 1200;	184 : 600;	185 : 1500;	190 : 600;	192 : 900;
	193 : 2400;	194 : 900;	195 : 2700;	196 : 4800;	197 : 2700;
	198 : 1200;	199 : 300;	200 : 300;	201 : 1800;	203 : 1500;
	204 : 600;	205 : 300;	206 : 2100;	207 : 1800;	208 : 300;
	209 : 300;	210 : 1800;	211 : 600;	214 : 600;	216 : 300;
	217 : 300;	218 : 600;	220 : 2400;	224 : 600;	226 : 300;
	229 : 1800;	230 : 1500;	231 : 3900;	232 : 1500;	233 : 1500;
	234 : 300;	235 : 1200;	236 : 300;	237 : 600;	240 : 300;
	244 : 300;
Origin  25
	2 : 300;	3 : 600;	5 : 300;	6 : 300;	8 : 300;
	9 : 300;	10 : 600;	12 : 300;	16 : 300;	19 : 1500;
	20 : 900;	22 : 900;	26 : 5400;	27 : 900;	29 : 1200;
	30 : 300;	33 : 300;	34 : 900;	40 : 300;	41 : 1500;
	45 : 1200;	48 : 300;	52 : 300;	65 : 600;	66 : 300;
	69 : 300;	70 : 900;	71 : 300;	72 : 900;	74 : 600;
	75 : 300;	85 : 300;	114 : 2400;	157 : 300;	158 : 2700;
	159 : 900;	160 : 300;	162 : 300;	164 : 300;	167 : 300;
	168 : 1500;	169 : 1800;	170 : 1200;	171 : 300;	174 : 1200;
	175 : 600;	176 : 300;	178 : 300;	180 : 2400;	181 : 900;
	183 : 1200;	184 : 2400;	185 : 7800;	190 : 600;	191 : 900;
	192 : 900;	193 : 10500;	194 : 4200;	195 : 10800;	196 : 12600;
	197 : 6900;	198 : 3900;	199 : 2400;	200 : 900;	201 : 5400;
	202 : 300;	203 : 2400;	204 : 1500;	205 : 1200;	206 : 4800;
	207 : 6000;	208 : 300;	209 : 300;	210 : 3900;	211 : 1200;
	212 : 600;	213 : 900;	214 : 900;	215 : 600;	216 : 1200;
	217 : 900;	218 : 1500;	219 : 300;	220 : 9000;	222 : 900;
	224 : 1500;	225 : 300;	226 : 1200;	229 : 3000;	230 : 6000;
	231 : 46200;	232 : 13200;	233 : 9600;	234 : 900;	235 : 2700;
	236 : 300;	237 : 900;	238 : 600;	239 : 300;	240 : 900;
	243 : 300;	244 : 600;	245 : 300;
Origin  26
	1 : 600;	2 : 300;	3 : 900;	4 : 300;	5 : 300;
	8 : 600;	9 : 300;	10 : 600;	11 : 300;	17 : 300;
	18 : 300;	20 : 600;	21 : 900;	22 : 4800;	23 : 600;
	24 : 300;	25 : 1800;	27 : 13800;	28 : 1500;	29 : 1200;
	34 : 3300;	37 : 300;	38 : 900;	39 : 300;	40 : 600;
	41 : 1800;	43 : 300;	45 : 600;	48 : 600;	53 : 300;
	57 : 300;	65 : 300;	66 : 600;	69 : 900;	70 : 1200;
	71 : 300;	72 : 2400;	73 : 300;	74 : 300;	75 : 600;
	76 : 300;	80 : 300;	90 : 300;	93 : 600;	116 : 2400;
	156 : 300;	157 : 300;	158 : 600;	159 : 1200;	162 : 600;
	163 : 600;	167 : 1200;	168 : 1200;	169 : 1800;	170 : 1200;
	172 : 300;	173 : 300;	174 : 1800;	175 : 1500;	176 : 900;
	179 : 300;	180 : 7800;	181 : 900;	183 : 1500;	184 : 1800;
	185 : 6900;	188 : 600;	190 : 1200;	191 : 2400;	192 : 3000;
	193 : 15000;	194 : 6600;	195 : 15000;	196 : 18000;	197 : 9600;
	198 : 6000;	199 : 2700;	200 : 1500;	201 : 6300;	203 : 5100;
	204 : 4200;	205 : 1200;	206 : 10200;	207 : 12600;	208 : 300;
	209 : 900;	210 : 5400;	211 : 1500;	212 : 600;	213 : 1800;
	214 : 900;	215 : 300;	216 : 1500;	217 : 1800;	218 : 2400;
	220 : 15300;	221 : 300;	222 : 300;	224 : 3300;	225 : 300;
	226 : 1200;	227 : 300;	228 : 300;	229 : 2700;	230 : 3300;
	231 : 17700;	232 : 13800;	233 : 22200;	234 : 2700;	235 : 6600;
	236 : 600;	237 : 2700;	238 : 900;	239 : 600;	240 : 900;
	242 : 300;	244 : 1500;	245 : 600;
Origin  27
	1 : 600;	2 : 300;	3 : 300;	5 : 300;	10 : 300;
	11 : 300;	20 : 600;	21 : 900;	22 : 4800;	23 : 300;
	24 : 300;	25 : 1500;	26 : 35700;	28 : 1800;	29 : 1800;
	30 : 300;	34 : 1800;	37 : 300;	38 : 600;	40 : 300;
	41 : 900;	43 : 300;	45 : 600;	48 : 300;	52 : 300;
	60 : 300;	69 : 600;	70 : 600;	71 : 300;	72 : 1200;
	74 : 300;	75 : 300;	84 : 300;	87 : 300;	116 : 1500;
	156 : 300;	157 : 600;	158 : 300;	162 : 600;	163 : 300;
	164 : 1500;	167 : 600;	168 : 600;	169 : 900;	170 : 900;
	171 : 300;	174 : 900;	175 : 900;	176 : 300;	177 : 300;
	180 : 2100;	181 : 300;	183 : 2400;	184 : 2100;	185 : 3000;
	188 : 300;	190 : 600;	191 : 1200;	192 : 1800;	193 : 8400;
	194 : 3300;	195 : 8700;	196 : 10800;	197 : 4200;	198 : 3300;
	199 : 1200;	200 : 600;	201 : 4500;	202 : 300;	203 : 2700;
	204 : 1500;	205 : 600;	206 : 6300;	207 : 6600;	210 : 3300;
	211 : 600;	212 : 300;	213 : 900;	214 : 300;	215 : 300;
	216 : 900;	217 : 1500;	218 : 900;	219 : 300;	220 : 9300;
	221 : 300;	222 : 300;	224 : 2100;	225 : 300;	226 : 300;
	228 : 300;	229 : 2100;	230 : 2700;	231 : 10800;	232 : 10200;
	233 : 13200;	234 : 900;	235 : 3900;	236 : 300;	237 : 1500;
	238 : 600;	239 : 600;	240 : 900;	241 : 300;
Origin  28
	3 : 300;	10 : 300;	12 : 300;	22 : 1200;	25 : 300;
	26 : 5400;	27 : 1800;	29 : 300;	33 : 300;	34 : 600;
	41 : 300;	42 : 300;	57 : 300;	69 : 300;	72 : 300;
	87 : 300;	156 : 300;	158 : 600;	159 : 600;	162 : 300;
	167 : 300;	168 : 300;	169 : 300;	170 : 600;	174 : 300;
	180 : 900;	181 : 300;	184 : 300;	185 : 900;	191 : 600;
	193 : 2400;	194 : 900;	195 : 2100;	196 : 3300;	197 : 1500;
	198 : 600;	201 : 600;	203 : 900;	204 : 900;	206 : 1800;
	207 : 1800;	210 : 600;	211 : 300;	215 : 300;	216 : 300;
	220 : 2100;	224 : 300;	226 : 300;	229 : 600;	230 : 300;
	231 : 2100;	232 : 2100;	233 : 2700;	234 : 600;	235 : 1800;
	236 : 300;	239 : 300;	240 : 300;	244 : 300;	245 : 300;

Origin  29
	3 : 300;	5 : 300;	6 : 300;	9 : 300;	11 : 300;
	19 : 300;	20 : 300;	21 : 600;	22 : 3000;	23 : 600;
	25 : 600;	26 : 2400;	27 : 600;	28 : 300;	30 : 300;
	31 : 300;	32 : 300;	33 : 300;	34 : 2700;	36 : 300;
	38 : 600;	39 : 300;	40 : 600;	41 : 900;	43 : 300;
	45 : 300;	48 : 600;	50 : 300;	52 : 300;	61 : 300;
	69 : 300;	70 : 900;	71 : 600;	72 : 1800;	74 : 300;
	75 : 300;	78 : 300;	90 : 600;	131 : 600;	156 : 300;
	157 : 300;	158 : 600;	159 : 2100;	162 : 600;	163 : 300;
	167 : 600;	168 : 300;	169 : 1200;	170 : 900;	172 : 300;
	174 : 600;	175 : 600;	180 : 3000;	181 : 300;	183 : 600;
	184 : 1500;	185 : 5100;	190 : 900;	191 : 900;	192 : 1800;
	193 : 6600;	194 : 3300;	195 : 6300;	196 : 9000;	197 : 3000;
	198 : 3000;	199 : 1500;	200 : 600;	201 : 3600;	203 : 1500;
	204 : 1500;	205 : 300;	206 : 4800;	207 : 6300;	209 : 300;
	210 : 2100;	211 : 1200;	213 : 300;	214 : 300;	215 : 300;
	216 : 300;	217 : 300;	218 : 1200;	220 : 7800;	221 : 300;
	224 : 1200;	226 : 300;	228 : 300;	229 : 900;	230 : 1500;
	231 : 6600;	232 : 2400;	233 : 5100;	234 : 900;	235 : 31800;