<NUMBER OF ZONES> 245
<NUMBER OF NODES> 4660
<FIRST THRU NODE> 246
<NUMBER OF LINKS> 6674
<END OF METADATA> 
~	Init node	Term node	Capacity	Length	Free Flow Time	B	Power	Speed limit	Toll	Type	;
1	4416	133333	1.08	0.75	0.1	1.5	50	0	1;
2	4417	133333	1.31	0.75	0.1	1.5	80	0	1;
3	4418	133333	1.79	0.75	0.1	1.5	100	0	1;
4	4419	133333	1.08	0.75	0.1	1.5	120	0	1;
5	4420	133333	0.4	0.75	0.1	1.5	30	0	1;
6	4421	133333	0.78	0.75	0.1	1.5	50	0	1;
7	4422	133333	0.64	0.75	0.1	1.5	80	0	1;
8	4423	133333	2.14	0.75	0.1	1.5	100	0	1;
9	4424	133333	1.59	0.75	0.1	1.5	120	0	1;
10	4425	133333	0.71	0.75	0.1	1.5	30	0	1;
11	4426	133333	3.07	0.75	0.1	1.5	50	0	1;
12	4427	133333	2.7	0.75	0.1	1.5	80	0	1;
13	4428	133333	1.76	0.75	0.1	1.5	100	0	1;
14	4429	133333	0.3	0.75	0.1	1.5	120	0	1;
15	4430	133333	0.64	0.75	0.1	1.5	30	0	1;
16	4431	133333	0.24	0.75	0.1	1.5	50	0	1;
17	4432	133333	3.61	0.75	0.1	1.5	80	0	1;
18	4433	133333	0.72	0.75	0.1	1.5	100	0	1;
19	4434	133333	0.49	0.75	0.1	1.5	120	0	1;
20	4435	133333	2.77	0.75	0.1	1.5	30	0	1;
21	4436	133333	1.55	0.75	0.1	1.5	50	0	1;
22	4437	133333	0.38	0.75	0.1	1.5	80	0	1;
23	4438	133333	0.63	0.75	0.1	1.5	100	0	1;
24	4439	133333	2.34	0.75	0.1	1.5	120	0	1;
25	4440	133333	0.52	0.75	0.1	1.5	30	0	1;
26	4441	133333	1.25	0.75	0.1	1.5	50	0	1;
27	4442	133333	2.59	0.75	0.1	1.5	80	0	1;
28	4443	133333	0.81	0.75	0.1	1.5	100	0	1;
29	4444	133333	0.33	0.75	0.1	1.5	120	0	1;
30	4445	133333	1.13	0.75	0.1	1.5	30	0	1;
31	4446	133333	0.33	0.75	0.1	1.5	50	0	1;
32	4447	133333	1.8	0.75	0.1	1.5	80	0	1;
33	4448	133333	1.08	0.75	0.1	1.5	100	0	1;
34	4449	133333	0.26	0.75	0.1	1.5	120	0	1;
35	4450	133333	0.27	0.75	0.1	1.5	30	0	1;
36	4451	133333	4.61	0.75	0.1	1.5	50	0	1;
37	4452	133333	3.69	0.75	0.1	1.5	80	0	1;
38	4453	133333	1.61	0.75	0.1	1.5	100	0	1;
39	4454	133333	1.04	0.75	0.1	1.5	120	0	1;
40	4455	133333	1.03	0.75	0.1	1.5	30	0	1;
41	4456	133333	0.77	0.75	0.1	1.5	50	0	1;
42	4457	133333	3.93	0.75	0.1	1.5	80	0	1;
43	4458	133333	0.49	0.75	0.1	1.5	100	0	1;
44	4459	133333	0.23	0.75	0.1	1.5	120	0	1;
45	4460	133333	0.77	0.75	0.1	1.5	30	0	1;
46	4461	133333	0.8	0.75	0.1	1.5	50	0	1;
47	4462	133333	2.74	0.75	0.1	1.5	80	0	1;
48	4463	133333	0.81	0.75	0.1	1.5	100	0	1;
49	4464	133333	0.62	0.75	0.1	1.5	120	0	1;
50	4465	133333	1.32	0.75	0.1	1.5	30	0	1;
51	4466	133333	0.5	0.75	0.1	1.5	50	0	1;
52	4467	133333	2.52	0.75	0.1	1.5	80	0	1;
53	4468	133333	0.21	0.75	0.1	1.5	100	0	1;
54	4469	133333	0.55	0.75	0.1	1.5	120	0	1;
55	4470	133333	3.09	0.75	0.1	1.5	30	0	1;
56	4471	133333	0.42	0.75	0.1	1.5	50	0	1;
57	4472	133333	0.68	0.75	0.1	1.5	80	0	1;
58	4473	133333	0.42	0.75	0.1	1.5	100	0	1;
59	4474	133333	1.74	0.75	0.1	1.5	120	0	1;
60	4475	133333	0.49	0.75	0.1	1.5	30	0	1;
61	4476	133333	1.72	0.75	0.1	1.5	50	0	1;
62	4477	133333	2.84	0.75	0.1	1.5	80	0	1;
63	4478	133333	1.74	0.75	0.1	1.5	100	0	1;
64	4479	133333	2.37	0.75	0.1	1.5	120	0	1;
65	4480	133333	0.5	0.75	0.1	1.5	30	0	1;
66	4481	133333	0.61	0.75	0.1	1.5	50	0	1;
67	4482	133333	1.81	0.75	0.1	1.5	80	0	1;
68	4483	133333	1.29	0.75	0.1	1.5	100	0	1;
69	4484	133333	1.37	0.75	0.1	1.5	120	0	1;
70	4485	133333	0.55	0.75	0.1	1.5	30	0	1;
71	4486	133333	0.48	0.75	0.1	1.5	50	0	1;
72	4487	133333	1.32	0.75	0.1	1.5	80	0	1;
73	4488	133333	1.07	0.75	0.1	1.5	100	0	1;
74	4489	133333	0.78	0.75	0.1	1.5	120	0	1;
75	4490	133333	0.62	0.75	0.1	1.5	30	0	1;
76	4491	133333	1.34	0.75	0.1	1.5	50	0	1;
77	4492	133333	0.72	0.75	0.1	1.5	80	0	1;
78	4493	133333	0.64	0.75	0.1	1.5	100	0	1;
79	4494	133333	1.44	0.75	0.1	1.5	120	0	1;
80	4495	133333	1.08	0.75	0.1	1.5	30	0	1;
81	4496	133333	1.51	0.75	0.1	1.5	50	0	1;
82	4497	133333	3.67	0.75	0.1	1.5	80	0	1;
83	4498	133333	1.59	0.75	0.1	1.5	100	0	1;
84	4499	133333	4.19	0.75	0.1	1.5	120	0	1;
85	4500	133333	2.38	0.75	0.1	1.5	30	0	1;
86	4501	133333	1	0.75	0.1	1.5	50	0	1;
87	4502	133333	0.83	0.75	0.1	1.5	80	0	1;
88	4503	133333	2.61	0.75	0.1	1.5	100	0	1;
89	4504	133333	3.33	0.75	0.1	1.5	120	0	1;
90	4505	133333	2.95	0.75	0.1	1.5	30	0	1;
91	4506	133333	5.89	0.75	0.1	1.5	50	0	1;
92	4507	133333	1.14	0.75	0.1	1.5	80	0	1;
93	4508	133333	0.72	0.75	0.1	1.5	100	0	1;
94	4509	133333	0.43	0.75	0.1	1.5	120	0	1;
95	4510	133333	1.22	0.75	0.1	1.5	30	0	1;
96	4511	133333	1.47	0.75	0.1	1.5	50	0	1;
97	4512	133333	0.47	0.75	0.1	1.5	80	0	1;
98	4513	133333	2.08	0.75	0.1	1.5	100	0	1;
99	4514	133333	0.8	0.75	0.1	1.5	120	0	1;
100	4515	133333	1.97	0.75	0.1	1.5	30	0	1;
101	4516	133333	1.35	0.75	0.1	1.5	50	0	1;
102	4517	133333	0.69	0.75	0.1	1.5	80	0	1;
103	4518	133333	1.16	0.75	0.1	1.5	100	0	1;
104	4519	133333	1.85	0.75	0.1	1.5	120	0	1;
105	4520	133333	0.9	0.75	0.1	1.5	30	0	1;
106	4521	133333	0.97	0.75	0.1	1.5	50	0	1;
107	4522	133333	0.19	0.75	0.1	1.5	80	0	1;
108	4523	133333	1.25	0.75	0.1	1.5	100	0	1;
109	4524	133333	0.49	0.75	0.1	1.5	120	0	1;
110	4525	133333	0.89	0.75	0.1	1.5	30	0	1;
111	4526	133333	0.92	0.75	0.1	1.5	50	0	1;
112	4527	133333	0.28	0.75	0.1	1.5	80	0	1;
113	4528	133333	0.42	0.75	0.1	1.5	100	0	1;
114	4529	133333	0.57	0.75	0.1	1.5	120	0	1;
115	4530	133333	0.9	0.75	0.1	1.5	30	0	1;
116	4531	133333	1.4	0.75	0.1	1.5	50	0	1;
117	4532	133333	1.8	0.75	0.1	1.5	80	0	1;
118	4533	133333	0.53	0.75	0.1	1.5	100	0	1;
119	4534	133333	0.43	0.75	0.1	1.5	120	0	1;
120	4535	133333	0.67	0.75	0.1	1.5	30	0	1;
121	4536	133333	1.24	0.75	0.1	1.5	50	0	1;
122	4537	133333	0.48	0.75	0.1	1.5	80	0	1;
123	4538	133333	0.24	0.75	0.1	1.5	100	0	1;
124	4539	133333	0.41	0.75	0.1	1.5	120	0	1;
125	4540	133333	0.71	0.75	0.1	1.5	30	0	1;
126	4541	133333	0.45	0.75	0.1	1.5	50	0	1;
127	4542	133333	0.86	0.75	0.1	1.5	80	0	1;
128	4543	133333	1.45	0.75	0.1	1.5	100	0	1;
129	4544	133333	0.49	0.75	0.1	1.5	120	0	1;
130	4545	133333	1.03	0.75	0.1	1.5	30	0	1;
131	4546	133333	0.33	0.75	0.1	1.5	50	0	1;
132	4547	133333	1.73	0.75	0.1	1.5	80	0	1;
133	4548	133333	0.28	0.75	0.1	1.5	100	0	1;
134	4549	133333	1.41	0.75	0.1	1.5	120	0	1;
135	4550	133333	0.93	0.75	0.1	1.5	30	0	1;
136	4551	133333	0.99	0.75	0.1	1.5	50	0	1;
137	4552	133333	1.38	0.75	0.1	1.5	80	0	1;
138	4553	133333	1.97	0.75	0.1	1.5	100	0	1;
139	4554	133333	1.02	0.75	0.1	1.5	120	0	1;
140	4555	133333	1.29	0.75	0.1	1.5	30	0	1;
141	4556	133333	0.99	0.75	0.1	1.5	50	0	1;
142	4557	133333	0.93	0.75	0.1	1.5	80	0	1;
143	4558	133333	0.5	0.75	0.1	1.5	100	0	1;
144	4559	133333	0.93	0.75	0.1	1.5	120	0	1;
145	4560	133333	1.68	0.75	0.1	1.5	30	0	1;
146	4561	133333	0.52	0.75	0.1	1.5	50	0	1;
147	4562	133333	0.48	0.75	0.1	1.5	80	0	1;
148	4563	133333	0.26	0.75	0.1	1.5	100	0	1;
149	4564	133333	2.02	0.75	0.1	1.5	120	0	1;
150	4565	133333	0.41	0.75	0.1	1.5	30	0	1;
151	4566	133333	1.03	0.75	0.1	1.5	50	0	1;
152	4567	133333	0.41	0.75	0.1	1.5	80	0	1;
153	4568	133333	0.72	0.75	0.1	1.5	100	0	1;
154	4569	133333	0.91	0.75	0.1	1.5	120	0	1;
155	4570	133333	2.23	0.75	0.1	1.5	30	0	1;
156	4571	133333	1.02	0.75	0.1	1.5	50	0	1;
157	4572	133333	0.11	0.75	0.1	1.5	80	0	1;
158	4573	133333	0.14	0.75	0.1	1.5	100	0	1;
159	4574	133333	0.76	0.75	0.1	1.5	120	0	1;
160	4575	133333	6.58	0.75	0.1	1.5	30	0	1;
161	4576	133333	0.38	0.75	0.1	1.5	50	0	1;
162	4577	133333	0.85	0.75	0.1	1.5	80	0	1;
163	4578	133333	0.24	0.75	0.1	1.5	100	0	1;
164	4579	133333	0.71	0.75	0.1	1.5	120	0	1;
165	4580	133333	1.24	0.75	0.1	1.5	30	0	1;
166	4581	133333	1	0.75	0.1	1.5	50	0	1;
167	4582	133333	0.72	0.75	0.1	1.5	80	0	1;
168	4583	133333	0.98	0.75	0.1	1.5	100	0	1;
169	4584	133333	0.36	0.75	0.1	1.5	120	0	1;
170	4585	133333	2.27	0.75	0.1	1.5	30	0	1;
171	4586	133333	0.64	0.75	0.1	1.5	50	0	1;
172	4587	133333	0.35	0.75	0.1	1.5	80	0	1;
173	4588	133333	0.98	0.75	0.1	1.5	100	0	1;
174	4589	133333	0.59	0.75	0.1	1.5	120	0	1;
175	4590	133333	0.26	0.75	0.1	1.5	30	0	1;
176	4591	133333	0.95	0.75	0.1	1.5	50	0	1;
177	4592	133333	2	0.75	0.1	1.5	80	0	1;
178	4593	133333	0.51	0.75	0.1	1.5	100	0	1;
179	4594	133333	0.67	0.75	0.1	1.5	120	0	1;
180	4595	133333	0.49	0.75	0.1	1.5	30	0	1;
181	4596	133333	0.97	0.75	0.1	1.5	50	0	1;
182	4597	133333	0.39	0.75	0.1	1.5	80	0	1;
183	4598	133333	0.12	0.75	0.1	1.5	100	0	1;
184	4599	133333	1.08	0.75	0.1	1.5	120	0	1;
185	4600	133333	1.35	0.75	0.1	1.5	30	0	1;
186	4601	133333	0.45	0.75	0.1	1.5	50	0	1;
187	4602	133333	0.44	0.75	0.1	1.5	80	0	1;
188	4603	133333	0.63	0.75	0.1	1.5	100	0	1;
189	4604	133333	0.68	0.75	0.1	1.5	120	0	1;
190	4605	133333	1.03	0.75	0.1	1.5	30	0	1;
191	4606	133333	0.62	0.75	0.1	1.5	50	0	1;
192	4607	133333	0.53	0.75	0.1	1.5	80	0	1;
193	4608	133333	2.58	0.75	0.1	1.5	100	0	1;
194	4609	133333	1.27	0.75	0.1	1.5	120	0	1;
195	4610	133333	1.33	0.75	0.1	1.5	30	0	1;
196	4611	133333	1.64	0.75	0.1	1.5	50	0	1;
197	4612	133333	0.82	0.75	0.1	1.5	80	0	1;
198	4613	133333	0.95	0.75	0.1	1.5	100	0	1;
199	4614	133333	0.27	0.75	0.1	1.5	120	0	1;
200	4615	133333	1.02	0.75	0.1	1.5	30	0	1;
201	4616	133333	1.81	0.75	0.1	1.5	50	0	1;
202	4617	133333	1.35	0.75	0.1	1.5	80	0	1;
203	4618	133333	1.2	0.75	0.1	1.5	100	0	1;
204	4619	133333	0.94	0.75	0.1	1.5	120	0	1;
205	4620	133333	0.7	0.75	0.1	1.5	30	0	1;
206	4621	133333	1.82	0.75	0.1	1.5	50	0	1;
207	4622	133333	1.33	0.75	0.1	1.5	80	0	1;
208	4623	133333	0.94	0.75	0.1	1.5	100	0	1;
209	4624	133333	0.58	0.75	0.1	1.5	120	0	1;
210	4625	133333	0.94	0.75	0.1	1.5	30	0	1;
211	4626	133333	1.7	0.75	0.1	1.5	50	0	1;
212	4627	133333	0.39	0.75	0.1	1.5	80	0	1;
213	4628	133333	1.92	0.75	0.1	1.5	100	0	1;
214	4629	133333	1.69	0.75	0.1	1.5	120	0	1;
215	4630	133333	2.35	0.75	0.1	1.5	30	0	1;
216	4631	133333	0.82	0.75	0.1	1.5	50	0	1;
217	4632	133333	0.94	0.75	0.1	1.5	80	0	1;
218	4633	133333	0.73	0.75	0.1	1.5	100	0	1;
219	4634	133333	0.92	0.75	0.1	1.5	120	0	1;
220	4635	133333	1.8	0.75	0.1	1.5	30	0	1;
221	4636	133333	1.14	0.75	0.1	1.5	50	0	1;
222	4637	133333	0.4	0.75	0.1	1.5	80	0	1;
223	4638	133333	0.4	0.75	0.1	1.5	100	0	1;
224	4639	133333	1.65	0.75	0.1	1.5	120	0	1;
225	4640	133333	0.59	0.75	0.1	1.5	30	0	1;
226	4641	133333	0.43	0.75	0.1	1.5	50	0	1;
227	4642	133333	1.07	0.75	0.1	1.5	80	0	1;
228	4643	133333	0.48	0.75	0.1	1.5	100	0	1;
229	4644	133333	0.48	0.75	0.1	1.5	120	0	1;
230	4645	133333	2.09	0.75	0.1	1.5	30	0	1;
231	4646	133333	1.17	0.75	0.1	1.5	50	0	1;
232	4647	133333	0.36	0.75	0.1	1.5	80	0	1;
233	4648	133333	1.45	0.75	0.1	1.5	100	0	1;
234	4649	133333	0.63	0.75	0.1	1.5	120	0	1;
235	4650	133333	0.05	0.75	0.1	1.5	30	0	1;
236	4651	133333	1	0.75	0.1	1.5	50	0	1;
237	4652	133333	1.42	0.75	0.1	1.5	80	0	1;
238	4653	133333	0.96	0.75	0.1	1.5	100	0	1;
239	4654	133333	1.96	0.75	0.1	1.5	120	0	1;
240	4655	133333	0.72	0.75	0.1	1.5	30	0	1;
241	4656	133333	0.3	0.75	0.1	1.5	50	0	1;
242	4657	133333	2.31	0.75	0.1	1.5	80	0	1;
243	4658	133333	2.08	0.75	0.1	1.5	100	0	1;
244	4659	133333	0.74	0.75	0.1	1.5	120	0	1;
245	4660	133333	0.95	0.75	0.1	1.5	30	0	1;
246	1532	8400	3.8	0.75	0.1	1.5	50	0	1;
247	1184	3733.33	0.17	0.75	0.1	1.5	80	0	1;
248	1557	1866.67	0.26	0.75	0.1	1.5	100	0	1;
249	252	8400	0.05	0.75	0.1	1.5	120	0	1;
249	253	1866.67	0.14	0.75	0.1	1.5	30	0	1;
250	504	3733.33	0.03	0.75	0.1	1.5	50	0	1;
250	2045	3733.33	0.11	0.75	0.1	1.5	80	0	1;
250	2410	2533.33	0.02	0.75	0.1	1.5	100	0	1;
251	1558	2800	0.02	0.75	0.1	1.5	120	0	1;
251	1939	2533.33	0.03	0.75	0.1	1.5	30	0	1;
251	3595	1866.67	0.11	0.75	0.1	1.5	50	0	1;
252	1299	8400	0.24	0.75	0.1	1.5	80	0	1;
253	247	2800	0.18	0.75	0.1	1.5	100	0	1;
253	1577	2800	0.54	0.75	0.1	1.5	120	0	0;
254	679	2800	0.07	0.75	0.1	1.5	30	0	1;
255	2042	5066.67	1.05	0.75	0.1	1.5	50	0	1;
256	258	2800	0.03	0.75	0.1	1.5	80	0	0;
257	924	14000	0.14	0.75	0.1	1.5	100	0	1;
258	263	1866.67	0.1	0.75	0.1	1.5	120	0	0;
259	260	2800	0.03	0.75	0.1	1.5	30	0	1;
260	1951	1866.67	0.03	0.75	0.1	1.5	50	0	0;
261	1561	8400	0.09	0.75	0.1	1.5	80	0	1;
262	289	11200	0.04	0.75	0.1	1.5	100	0	1;
263	264	8400	0.12	0.75	0.1	1.5	120	0	1;
264	269	8400	3.22	0.75	0.1	1.5	30	0	1;
265	246	8400	0.53	0.75	0.1	1.5	50	0	1;
266	975	11200	0.1	0.75	0.1	1.5	80	0	1;
267	284	2800	0.02	0.75	0.1	1.5	100	0	1;
267	385	1866.67	0.02	0.75	0.1	1.5	120	0	1;
267	4225	1866.67	0.22	0.75	0.1	1.5	30	0	1;
268	3593	1866.67	0.09	0.75	0.1	1.5	50	0	1;
269	261	8400	0.38	0.75	0.1	1.5	80	0	1;
270	304	2800	0.11	0.75	0.1	1.5	100	0	1;
271	353	8400	0.06	0.75	0.1	1.5	120	0	1;
272	1294	8400	0.06	0.75	0.1	1.5	30	0	1;
273	1588	8400	0.08	0.75	0.1	1.5	50	0	1;
274	3923	5600	0.36	0.75	0.1	1.5	80	0	1;
275	280	2800	0.05	0.75	0.1	1.5	100	0	1;
275	282	2800	0.06	0.75	0.1	1.5	120	0	1;
276	313	5600	0.44	0.75	0.1	1.5	30	0	1;
277	2940	5066.67	0.05	0.75	0.1	1.5	50	0	1;
278	1580	8400	0.09	0.75	0.1	1.5	80	0	1;
279	303	8400	0.04	0.75	0.1	1.5	100	0	1;
280	929	2800	0.13	0.75	0.1	1.5	120	0	1;
281	1082	2800	0.11	0.75	0.1	1.5	30	0	0;
282	472	2800	0.11	0.75	0.1	1.5	50	0	1;
283	886	3733.33	0.04	0.75	0.1	1.5	80	0	1;
283	3452	2800	0.04	0.75	0.1	1.5	100	0	0;
283	3720	5600	0.11	0.75	0.1	1.5	120	0	1;
284	308	2800	0.23	0.75	0.1	1.5	30	0	1;
285	286	7600	0.03	0.75	0.1	1.5	50	0	1;
286	287	7600	0.07	0.75	0.1	1.5	80	0	1;
287	288	1866.67	0.13	0.75	0.1	1.5	100	0	1;
287	293	5066.67	0.16	0.75	0.1	1.5	120	0	1;
288	2943	2800	0.28	0.75	0.1	1.5	30	0	1;
289	290	11200	0.04	0.75	0.1	1.5	50	0	1;
290	1653	5600	0.04	0.75	0.1	1.5	80	0	1;
290	2624	5600	0.04	0.75	0.1	1.5	100	0	1;
291	298	5066.67	0.06	0.75	0.1	1.5	120	0	1;
292	2019	2800	0.27	0.75	0.1	1.5	30	0	1;
293	295	7600	0.07	0.75	0.1	1.5	50	0	1;
294	1898	5600	0.4	0.75	0.1	1.5	80	0	1;
295	3003	5066.67	1.37	0.75	0.1	1.5	100	0	1;
296	500	7600	0.1	0.75	0.1	1.5	120	0	1;
297	358	7600	0.06	0.75	0.1	1.5	30	0	1;
298	316	2533.33	0.17	0.75	0.1	1.5	50	0	1;
298	613	2800	0.29	0.75	0.1	1.5	80	0	1;
299	4310	1866.67	0.06	0.75	0.1	1.5	100	0	1;
300	305	1866.67	0.05	0.75	0.1	1.5	120	0	1;
300	2003	1866.67	0.1	0.75	0.1	1.5	30	0	1;
301	674	2800	0.28	0.75	0.1	1.5	50	0	0;
302	328	5600	0.15	0.75	0.1	1.5	80	0	1;
303	1122	11200	0.09	0.75	0.1	1.5	100	0	1;
304	409	8400	0.09	0.75	0.1	1.5	120	0	1;
305	299	1866.67	0.05	0.75	0.1	1.5	30	0	1;
305	3570	1866.67	0.11	0.75	0.1	1.5	50	0	1;
306	1506	2533.33	0.32	0.75	0.1	1.5	80	0	1;
307	303	2800	0.06	0.75	0.1	1.5	100	0	0;
308	355	2533.33	0.03	0.75	0.1	1.5	120	0	1;
309	1480	2533.33	0.74	0.75	0.1	1.5	30	0	1;
310	267	2800	0.02	0.75	0.1	1.5	50	0	1;
310	385	2800	0.03	0.75	0.1	1.5	80	0	1;
311	310	2800	0.37	0.75	0.1	1.5	100	0	1;
311	360	5600	0.01	0.75	0.1	1.5	120	0	1;
312	317	2800	0.34	0.75	0.1	1.5	30	0	1;
313	1589	5600	0.02	0.75	0.1	1.5	50	0	1;
314	933	1866.67	0.02	0.75	0.1	1.5	80	0	0;
315	1915	1866.67	0.03	0.75	0.1	1.5	100	0	1;
316	2710	2533.33	0.06	0.75	0.1	1.5	120	0	1;
317	318	2800	0.08	0.75	0.1	1.5	30	0	1;
318	319	2800	0.02	0.75	0.1	1.5	50	0	1;
319	321	8400	0.04	0.75	0.1	1.5	80	0	1;
320	311	8400	0.05	0.75	0.1	1.5	100	0	1;
321	325	5600	0.05	0.75	0.1	1.5	120	0	1;
322	323	8400	0.05	0.75	0.1	1.5	30	0	1;
323	1323	8400	0.06	0.75	0.1	1.5	50	0	1;
324	322	5600	0.08	0.75	0.1	1.5	80	0	1;
325	2992	5600	1.09	0.75	0.1	1.5	100	0	1;
326	320	5600	0.04	0.75	0.1	1.5	120	0	1;
327	2993	5600	0.05	0.75	0.1	1.5	30	0	1;
328	2710	5600	0.04	0.75	0.1	1.5	50	0	0;
329	4141	8400	0.08	0.75	0.1	1.5	80	0	1;
330	2707	11200	0.11	0.75	0.1	1.5	100	0	1;
331	337	5066.67	0.03	0.75	0.1	1.5	120	0	1;
331	556	2800	0.21	0.75	0.1	1.5	30	0	1;
332	953	5066.67	0.03	0.75	0.1	1.5	50	0	1;
333	2030	5066.67	0.09	0.75	0.1	1.5	80	0	1;
334	2614	11200	0.97	0.75	0.1	1.5	100	0	1;
335	470	3733.33	0.06	0.75	0.1	1.5	120	0	1;
336	1371	1866.67	0.02	0.75	0.1	1.5	30	0	1;
336	2326	1866.67	0.04	0.75	0.1	1.5	50	0	0;
337	333	5066.67	0.24	0.75	0.1	1.5	80	0	1;
338	618	2800	0.28	0.75	0.1	1.5	100	0	1;
338	2702	2533.33	0.14	0.75	0.1	1.5	120	0	1;
339	343	2800	0.07	0.75	0.1	1.5	30	0	0;
340	338	5066.67	0.07	0.75	0.1	1.5	50	0	1;
341	345	5066.67	0.02	0.75	0.1	1.5	80	0	1;
342	331	7600	0.15	0.75	0.1	1.5	100	0	1;
343	341	7600	0.12	0.75	0.1	1.5	120	0	1;
344	347	7600	0.08	0.75	0.1	1.5	30	0	1;
345	549	5066.67	0.44	0.75	0.1	1.5	50	0	1;
346	342	5066.67	0.08	0.75	0.1	1.5	80	0	1;
347	346	5066.67	0.19	0.75	0.1	1.5	100	0	1;
347	526	2800	0.75	0.75	0.1	1.5	120	0	0;
348	501	5066.67	0.1	0.75	0.1	1.5	30	0	1;
349	368	5600	0.08	0.75	0.1	1.5	50	0	1;
350	403	11200	0.2	0.75	0.1	1.5	80	0	1;
351	356	1866.67	0.01	0.75	0.1	1.5	100	0	1;
351	357	1866.67	0.02	0.75	0.1	1.5	120	0	1;
351	1601	2533.33	0.02	0.75	0.1	1.5	30	0	1;
351	2638	2533.33	0.04	0.75	0.1	1.5	50	0	1;
352	2932	2533.33	0.07	0.75	0.1	1.5	80	0	1;
352	3733	1866.67	0.02	0.75	0.1	1.5	100	0	1;
352	4065	2533.33	0.09	0.75	0.1	1.5	120	0	1;
352	4656	133333	3.01	0.75	0.1	1.5	30	0	1;
353	930	5600	0.09	0.75	0.1	1.5	50	0	1;
353	1569	2800	0.37	0.75	0.1	1.5	80	0	1;
354	1705	5066.67	0.07	0.75	0.1	1.5	100	0	1;
355	580	8400	0.07	0.75	0.1	1.5	120	0	1;
356	4170	2533.33	0.15	0.75	0.1	1.5	30	0	1;
357	1591	2533.33	0.07	0.75	0.1	1.5	50	0	1;
358	359	5066.67	0.07	0.75	0.1	1.5	80	0	1;
358	2942	2800	0.44	0.75	0.1	1.5	100	0	1;
359	296	5066.67	0.07	0.75	0.1	1.5	120	0	1;
360	355	5600	0.1	0.75	0.1	1.5	30	0	1;
361	267	1866.67	0.02	0.75	0.1	1.5	50	0	1;
361	284	2800	0.04	0.75	0.1	1.5	80	0	1;
362	1970	3733.33	0.62	0.75	0.1	1.5	100	0	1;
362	3599	3733.33	0.17	0.75	0.1	1.5	120	0	1;
362	3910	1866.67	0.35	0.75	0.1	1.5	30	0	1;
362	4641	133333	5.26	0.75	0.1	1.5	50	0	1;
363	2778	3733.33	0.66	0.75	0.1	1.5	80	0	1;
363	4659	133333	23.07	0.75	0.1	1.5	100	0	1;
364	1945	2800	0.05	0.75	0.1	1.5	120	0	1;
365	1954	2800	0.08	0.75	0.1	1.5	30	0	1;
366	367	8400	0.08	0.75	0.1	1.5	50	0	1;
366	936	2800	0.39	0.75	0.1	1.5	80	0	1;
367	973	8400	0.11	0.75	0.1	1.5	100	0	1;
368	2644	5600	0.09	0.75	0.1	1.5	120	0	1;
369	375	2800	0.06	0.75	0.1	1.5	30	0	1;
369	1789	2800	0.03	0.75	0.1	1.5	50	0	1;
370	1413	2800	0.2	0.75	0.1	1.5	80	0	1;
371	402	2533.33	0.09	0.75	0.1	1.5	100	0	1;
372	1763	2800	0.49	0.75	0.1	1.5	120	0	1;
373	374	2800	0.03	0.75	0.1	1.5	30	0	1;
373	1785	2533.33	0.04	0.75	0.1	1.5	50	0	1;
374	372	2800	0.05	0.75	0.1	1.5	80	0	1;
375	1785	2533.33	0.11	0.75	0.1	1.5	100	0	1;
376	377	2800	0.31	0.75	0.1	1.5	120	0	1;
376	1760	2533.33	0.15	0.75	0.1	1.5	30	0	1;
377	1784	2800	0.05	0.75	0.1	1.5	50	0	1;
377	1785	2800	0.04	0.75	0.1	1.5	80	0	1;
378	365	2800	0.03	0.75	0.1	1.5	100	0	1;
378	379	1866.67	0.17	0.75	0.1	1.5	120	0	1;
378	4221	1866.67	0.13	0.75	0.1	1.5	30	0	1;
379	364	2800	0.03	0.75	0.1	1.5	50	0	1;
379	378	1866.67	0.18	0.75	0.1	1.5	80	0	1;
379	1957	1866.67	0.17	0.75	0.1	1.5	100	0	1;
380	381	5600	0.06	0.75	0.1	1.5	120	0	1;
381	1668	1866.67	0.05	0.75	0.1	1.5	30	0	1;
381	2459	5600	0.05	0.75	0.1	1.5	50	0	1;
382	2211	7600	0.01	0.75	0.1	1.5	80	0	1;
382	3138	2533.33	0.01	0.75	0.1	1.5	100	0	1;
383	1955	3733.33	1.2	0.75	0.1	1.5	120	0	1;
383	1968	3733.33	0.41	0.75	0.1	1.5	30	0	1;
383	2118	3733.33	0.82	0.75	0.1	1.5	50	0	1;
384	1949	2533.33	0.05	0.75	0.1	1.5	80	0	1;
385	392	1866.67	0.05	0.75	0.1	1.5	100	0	1;
386	267	1866.67	0.07	0.75	0.1	1.5	120	0	1;
387	1969	1866.67	0.44	0.75	0.1	1.5	30	0	1;
387	4363	1866.67	0.07	0.75	0.1	1.5	50	0	1;
388	661	1866.67	0.02	0.75	0.1	1.5	80	0	1;
388	1962	3733.33	0.02	0.75	0.1	1.5	100	0	1;
388	3736	3733.33	0.1	0.75	0.1	1.5	120	0	1;
389	390	2533.33	0.01	0.75	0.1	1.5	30	0	1;
390	3727	2533.33	0.07	0.75	0.1	1.5	50	0	1;
391	1953	2800	0.06	0.75	0.1	1.5	80	0	1;
391	3852	2533.33	0.08	0.75	0.1	1.5	100	0	1;
392	394	1866.67	0.19	0.75	0.1	1.5	120	0	1;
393	398	3733.33	0.08	0.75	0.1	1.5	30	0	1;
393	3587	2533.33	0.07	0.75	0.1	1.5	50	0	1;
393	4348	3733.33	0.1	0.75	0.1	1.5	80	0	1;
394	312	2800	0.03	0.75	0.1	1.5	100	0	1;
394	399	2533.33	0.01	0.75	0.1	1.5	120	0	1;
395	1020	1866.67	0.1	0.75	0.1	1.5	30	0	1;
396	399	2800	0.02	0.75	0.1	1.5	50	0	1;
396	3858	1866.67	0.01	0.75	0.1	1.5	80	0	1;
397	1127	2800	0.07	0.75	0.1	1.5	100	0	1;
397	4515	133333	29.59	0.75	0.1	1.5	120	0	1;
397	4621	133333	24.28	0.75	0.1	1.5	30	0	1;
398	393	3733.33	0.07	0.75	0.1	1.5	50	0	1;
398	3583	3733.33	0.05	0.75	0.1	1.5	80	0	1;
399	312	2800	0.02	0.75	0.1	1.5	100	0	1;
399	386	2533.33	0.23	0.75	0.1	1.5	120	0	1;
399	401	2533.33	0.01	0.75	0.1	1.5	30	0	1;
400	3867	1866.67	0.02	0.75	0.1	1.5	50	0	1;
401	432	2533.33	0.03	0.75	0.1	1.5	80	0	1;
402	405	2533.33	0.04	0.75	0.1	1.5	100	0	1;
403	428	10133.3	0.12	0.75	0.1	1.5	120	0	1;
404	968	2533.33	0.01	0.75	0.1	1.5	30	0	0;
405	407	1866.67	0.16	0.75	0.1	1.5	50	0	1;
406	1587	5600	0.04	0.75	0.1	1.5	80	0	1;
407	408	1866.67	0.1	0.75	0.1	1.5	100	0	1;
408	1659	2800	0.01	0.75	0.1	1.5	120	0	1;
409	413	8400	0.17	0.75	0.1	1.5	30	0	1;
410	272	5600	0.09	0.75	0.1	1.5	50	0	1;
411	405	2800	0.09	0.75	0.1	1.5	80	0	0;
412	1659	5600	0.31	0.75	0.1	1.5	100	0	1;
413	271	8400	0.08	0.75	0.1	1.5	120	0	1;
414	412	5600	0.48	0.75	0.1	1.5	30	0	1;
415	410	5600	0.25	0.75	0.1	1.5	50	0	1;
416	1679	2800	0.26	0.75	0.1	1.5	80	0	1;
417	429	1866.67	0.06	0.75	0.1	1.5	100	0	1;
418	2812	2533.33	0.96	0.75	0.1	1.5	120	0	1;
418	4482	133333	18.1	0.75	0.1	1.5	30	0	1;
419	3017	2533.33	1.62	0.75	0.1	1.5	50	0	1;
419	4482	133333	18.13	0.75	0.1	1.5	80	0	1;
420	421	2533.33	0.02	0.75	0.1	1.5	100	0	1;
421	571	5600	0.3	0.75	0.1	1.5	120	0	1;
422	343	5066.67	0.28	0.75	0.1	1.5	30	0	1;
423	883	5066.67	0.04	0.75	0.1	1.5	50	0	1;
424	2905	2800	0.04	0.75	0.1	1.5	80	0	1;
424	2965	2800	0.41	0.75	0.1	1.5	100	0	1;
425	297	8400	0.03	0.75	0.1	1.5	120	0	1;
426	1040	2800	0.28	0.75	0.1	1.5	30	0	1;
427	503	1866.67	0.02	0.75	0.1	1.5	50	0	1;
428	444	10133.3	0.12	0.75	0.1	1.5	80	0	1;
429	950	1866.67	0.52	0.75	0.1	1.5	100	0	1;
430	2044	3733.33	0.05	0.75	0.1	1.5	120	0	1;
431	681	2800	0.14	0.75	0.1	1.5	30	0	1;
432	2900	2533.33	0.13	0.75	0.1	1.5	50	0	1;
433	1605	5066.67	0.3	0.75	0.1	1.5	80	0	0;
434	1150	3733.33	0.73	0.75	0.1	1.5	100	0	1;
434	3156	3733.33	0.96	0.75	0.1	1.5	120	0	1;
434	4585	133333	33.49	0.75	0.1	1.5	30	0	1;
434	4615	133333	10.19	0.75	0.1	1.5	50	0	1;
435	497	5066.67	0.03	0.75	0.1	1.5	80	0	1;
436	908	2533.33	0.47	0.75	0.1	1.5	100	0	1;
437	397	1866.67	0.14	0.75	0.1	1.5	120	0	1;
437	690	5066.67	0.03	0.75	0.1	1.5	30	0	1;
438	1271	8400	0.12	0.75	0.1	1.5	50	0	1;
438	3887	5600	0.06	0.75	0.1	1.5	80	0	1;
439	1643	5066.67	0.13	0.75	0.1	1.5	100	0	1;
439	1644	5600	0.04	0.75	0.1	1.5	120	0	1;
440	4183	3733.33	0.08	0.75	0.1	1.5	30	0	1;
441	440	3733.33	0.02	0.75	0.1	1.5	50	0	1;
441	443	3733.33	0.04	0.75	0.1	1.5	80	0	1;
442	2678	1866.67	0.25	0.75	0.1	1.5	100	0	1;
442	3882	1866.67	0.86	0.75	0.1	1.5	120	0	1;
442	3891	1866.67	0.05	0.75	0.1	1.5	30	0	1;
443	483	5066.67	0.05	0.75	0.1	1.5	50	0	1;
443	1283	1866.67	0.23	0.75	0.1	1.5	80	0	1;
444	3455	11200	0.4	0.75	0.1	1.5	100	0	1;
445	1603	2800	0.16	0.75	0.1	1.5	120	0	1;
446	453	3733.33	0.05	0.75	0.1	1.5	30	0	1;
446	3780	5600	0.71	0.75	0.1	1.5	50	0	1;
447	599	3733.33	0.18	0.75	0.1	1.5	80	0	1;
447	1880	7600	0.04	0.75	0.1	1.5	100	0	1;
448	884	5600	0.16	0.75	0.1	1.5	120	0	1;
448	1800	5600	0.1	0.75	0.1	1.5	30	0	1;
448	4208	3733.33	0.09	0.75	0.1	1.5	50	0	1;
448	4209	3733.33	0.09	0.75	0.1	1.5	80	0	1;
449	1446	5600	0.04	0.75	0.1	1.5	100	0	1;
450	1106	2800	0.01	0.75	0.1	1.5	120	0	1;
451	1405	5066.67	0.08	0.75	0.1	1.5	30	0	1;
452	411	2800	0.2	0.75	0.1	1.5	50	0	1;
452	1404	4000	0.37	0.75	0.1	1.5	80	0	0;
453	456	5600	0.08	0.75	0.1	1.5	100	0	1;
454	467	5600	0.03	0.75	0.1	1.5	120	0	1;
454	606	1866.67	0.03	0.75	0.1	1.5	30	0	1;
455	763	5066.67	0.03	0.75	0.1	1.5	50	0	1;
456	1204	7466.67	0.05	0.75	0.1	1.5	80	0	1;
457	479	7600	0.04	0.75	0.1	1.5	100	0	1;
458	449	7600	0.02	0.75	0.1	1.5	120	0	1;
458	873	5066.67	0.02	0.75	0.1	1.5	30	0	1;
458	3131	5066.67	0.05	0.75	0.1	1.5	50	0	1;
459	2162	2800	0.05	0.75	0.1	1.5	80	0	1;
459	2169	5066.67	0.04	0.75	0.1	1.5	100	0	1;
459	2915	2533.33	0.01	0.75	0.1	1.5	120	0	1;
460	974	5066.67	0.06	0.75	0.1	1.5	30	0	1;
461	477	2800	0.49	0.75	0.1	1.5	50	0	1;
461	701	5600	0.87	0.75	0.1	1.5	80	0	1;
462	1207	2800	0.05	0.75	0.1	1.5	100	0	1;
463	465	8400	0.08	0.75	0.1	1.5	120	0	1;
464	642	2533.33	0.21	0.75	0.1	1.5	30	0	1;
465	476	8400	0.02	0.75	0.1	1.5	50	0	1;
466	1704	8400	0.1	0.75	0.1	1.5	80	0	1;
467	488	3733.33	0.02	0.75	0.1	1.5	100	0	1;
467	3130	5600	0.06	0.75	0.1	1.5	120	0	1;
468	494	2533.33	0.03	0.75	0.1	1.5	30	0	0;
468	901	2533.33	0.01	0.75	0.1	1.5	50	0	0;
469	1010	5066.67	0.04	0.75	0.1	1.5	80	0	1;
470	787	3733.33	0.09	0.75	0.1	1.5	100	0	1;
470	1830	5066.67	0.15	0.75	0.1	1.5	120	0	1;
471	1006	2800	0.06	0.75	0.1	1.5	30	0	1;
472	1518	5600	0.26	0.75	0.1	1.5	50	0	1;
473	3503	8400	0.11	0.75	0.1	1.5	80	0	1;
474	475	3733.33	0.04	0.75	0.1	1.5	100	0	1;
475	487	3733.33	0.05	0.75	0.1	1.5	120	0	1;
475	3928	3733.33	0.03	0.75	0.1	1.5	30	0	1;
476	478	11200	0.04	0.75	0.1	1.5	50	0	1;
477	463	2800	0.08	0.75	0.1	1.5	80	0	1;
478	600	8400	0.11	0.75	0.1	1.5	100	0	1;
478	1922	2800	0.15	0.75	0.1	1.5	120	0	1;
479	759	7600	0.07	0.75	0.1	1.5	30	0	1;
480	482	2800	0.22	0.75	0.1	1.5	50	0	1;
480	777	5066.67	0.05	0.75	0.1	1.5	80	0	1;
481	652	2533.33	0.04	0.75	0.1	1.5	100	0	1;
482	481	5066.67	0.06	0.75	0.1	1.5	120	0	1;
483	1239	5066.67	0.09	0.75	0.1	1.5	30	0	1;
483	1633	2800	0.21	0.75	0.1	1.5	50	0	1;
484	1093	2800	0.12	0.75	0.1	1.5	80	0	1;
485	848	5600	0.03	0.75	0.1	1.5	100	0	1;
485	3137	5600	0.59	0.75	0.1	1.5	120	0	1;
486	3530	2533.33	2.98	0.75	0.1	1.5	30	0	1;
486	4644	133333	58.98	0.75	0.1	1.5	50	0	1;
487	649	3733.33	0.07	0.75	0.1	1.5	80	0	1;
488	3742	5066.67	0.21	0.75	0.1	1.5	100	0	1;
489	471	2800	0.04	0.75	0.1	1.5	120	0	1;
489	998	2533.33	0.05	0.75	0.1	1.5	30	0	1;
490	1007	2800	0.55	0.75	0.1	1.5	50	0	1;
490	1017	2800	0.11	0.75	0.1	1.5	80	0	1;
491	998	2800	0.14	0.75	0.1	1.5	100	0	1;
492	3115	2533.33	0.16	0.75	0.1	1.5	120	0	1;
492	4644	133333	59.03	0.75	0.1	1.5	30	0	1;
493	3436	8400	0.37	0.75	0.1	1.5	50	0	1;
494	583	5066.67	0.09	0.75	0.1	1.5	80	0	1;
495	750	5066.67	0.37	0.75	0.1	1.5	100	0	1;
495	4411	2800	0.46	0.75	0.1	1.5	120	0	1;
496	399	2533.33	0.02	0.75	0.1	1.5	30	0	1;
497	436	5066.67	0.29	0.75	0.1	1.5	50	0	1;
498	3106	2533.33	1.52	0.75	0.1	1.5	80	0	1;
498	4425	133333	9.56	0.75	0.1	1.5	100	0	1;
499	250	7600	0.05	0.75	0.1	1.5	120	0	1;
500	512	5066.67	0.32	0.75	0.1	1.5	30	0	1;
501	329	10133.3	0.15	0.75	0.1	1.5	50	0	1;
502	4206	2533.33	0.16	0.75	0.1	1.5	80	0	1;
503	2220	1866.67	0.29	0.75	0.1	1.5	100	0	0;
504	430	5066.67	0.04	0.75	0.1	1.5	120	0	1;
505	506	5066.67	0.29	0.75	0.1	1.5	30	0	1;
506	508	5066.67	0.06	0.75	0.1	1.5	50	0	1;
507	510	2800	0.1	0.75	0.1	1.5	80	0	1;
508	1836	5066.67	0.41	0.75	0.1	1.5	100	0	1;
509	501	5066.67	0.05	0.75	0.1	1.5	120	0	1;
510	511	2800	0.03	0.75	0.1	1.5	30	0	1;
511	509	8400	0.2	0.75	0.1	1.5	50	0	1;
512	2199	5066.67	0.09	0.75	0.1	1.5	80	0	1;
513	2671	5066.67	0.05	0.75	0.1	1.5	100	0	1;
514	2671	5066.67	0.05	0.75	0.1	1.5	120	0	1;
515	2736	2533.33	1.82	0.75	0.1	1.5	30	0	1;
516	517	2533.33	0.01	0.75	0.1	1.5	50	0	1;
517	2729	2533.33	0.55	0.75	0.1	1.5	80	0	1;
518	519	2533.33	0.02	0.75	0.1	1.5	100	0	1;
519	1171	2533.33	0.01	0.75	0.1	1.5	120	0	1;
520	521	2533.33	0.01	0.75	0.1	1.5	30	0	1;
520	523	2533.33	0.02	0.75	0.1	1.5	50	0	1;
521	523	2533.33	0.01	0.75	0.1	1.5	80	0	0;
521	1193	2533.33	0.01	0.75	0.1	1.5	100	0	1;
521	1198	2533.33	0.04	0.75	0.1	1.5	120	0	1;
522	1244	2533.33	0.06	0.75	0.1	1.5	30	0	1;
523	522	2533.33	0.03	0.75	0.1	1.5	50	0	1;
524	1219	2800	0.07	0.75	0.1	1.5	80	0	1;
524	1590	2800	0.39	0.75	0.1	1.5	100	0	0;
525	1875	2800	0.38	0.75	0.1	1.5	120	0	1;
526	529	10133.3	0.09	0.75	0.1	1.5	30	0	1;
527	528	7600	0.1	0.75	0.1	1.5	50	0	1;
528	532	5066.67	0.04	0.75	0.1	1.5	80	0	1;
528	3158	2800	0.07	0.75	0.1	1.5	100	0	1;
529	421	5066.67	0.04	0.75	0.1	1.5	120	0	0;
529	527	5066.67	0.05	0.75	0.1	1.5	30	0	1;
529	547	5066.67	0.28	0.75	0.1	1.5	50	0	1;
530	526	7600	0.02	0.75	0.1	1.5	80	0	1;
531	587	3733.33	0.44	0.75	0.1	1.5	100	0	1;
531	1215	3733.33	0.14	0.75	0.1	1.5	120	0	1;
531	2753	3733.33	0.02	0.75	0.1	1.5	30	0	1;
531	2988	3733.33	0.09	0.75	0.1	1.5	50	0	1;
532	423	5066.67	0.01	0.75	0.1	1.5	80	0	1;
532	530	5066.67	0.09	0.75	0.1	1.5	100	0	1;
532	3158	2800	0.05	0.75	0.1	1.5	120	0	0;
533	536	5066.67	0.06	0.75	0.1	1.5	30	0	1;
534	2358	1866.67	0.02	0.75	0.1	1.5	50	0	0;
535	533	5066.67	1.08	0.75	0.1	1.5	80	0	1;
536	3361	5066.67	0.26	0.75	0.1	1.5	100	0	1;
537	538	5066.67	0.03	0.75	0.1	1.5	120	0	1;
537	542	2533.33	0.02	0.75	0.1	1.5	30	0	1;
538	535	5066.67	0.26	0.75	0.1	1.5	50	0	1;
538	541	2533.33	0.02	0.75	0.1	1.5	80	0	1;
538	545	5066.67	0.02	0.75	0.1	1.5	100	0	1;
539	541	5066.67	0.07	0.75	0.1	1.5	120	0	1;
540	545	2533.33	0.02	0.75	0.1	1.5	30	0	1;
541	538	5066.67	0.02	0.75	0.1	1.5	50	0	1;
541	540	1866.67	0.02	0.75	0.1	1.5	80	0	1;
541	544	2533.33	0.07	0.75	0.1	1.5	100	0	1;
542	543	1866.67	0.01	0.75	0.1	1.5	120	0	1;
543	541	1866.67	0.01	0.75	0.1	1.5	30	0	1;
544	4227	2533.33	0.12	0.75	0.1	1.5	50	0	1;
545	3749	3733.33	0.31	0.75	0.1	1.5	80	0	1;
546	566	3733.33	0.68	0.75	0.1	1.5	100	0	1;
546	4630	133333	31.57	0.75	0.1	1.5	120	0	1;
547	2422	5066.67	0.06	0.75	0.1	1.5	30	0	1;
548	344	5066.67	0.08	0.75	0.1	1.5	50	0	1;
549	550	5066.67	1	0.75	0.1	1.5	80	0	1;
550	551	5066.67	0.07	0.75	0.1	1.5	100	0	1;
551	552	5066.67	0.02	0.75	0.1	1.5	120	0	1;
552	553	7600	0.04	0.75	0.1	1.5	30	0	1;
553	554	7600	0.06	0.75	0.1	1.5	50	0	1;
553	558	1866.67	0.04	0.75	0.1	1.5	80	0	1;
554	555	7600	0.03	0.75	0.1	1.5	100	0	1;
555	557	1866.67	0.03	0.75	0.1	1.5	120	0	1;
555	593	5066.67	0.05	0.75	0.1	1.5	30	0	1;
556	527	2800	0.15	0.75	0.1	1.5	50	0	0;
557	573	1866.67	0.15	0.75	0.1	1.5	80	0	1;
558	2787	1866.67	0.25	0.75	0.1	1.5	100	0	1;
559	3198	5066.67	0.01	0.75	0.1	1.5	120	0	1;
560	548	5066.67	1	0.75	0.1	1.5	30	0	1;
561	2034	5066.67	0.04	0.75	0.1	1.5	50	0	1;
562	563	2533.33	0.04	0.75	0.1	1.5	80	0	0;
563	559	7600	0.12	0.75	0.1	1.5	100	0	1;
564	569	5066.67	0.13	0.75	0.1	1.5	120	0	1;
565	416	2800	0.23	0.75	0.1	1.5	30	0	1;
566	709	3733.33	0.34	0.75	0.1	1.5	50	0	1;
566	4513	133333	21.24	0.75	0.1	1.5	80	0	1;
566	4585	133333	22.72	0.75	0.1	1.5	100	0	1;
566	4630	133333	23.53	0.75	0.1	1.5	120	0	1;
567	572	3733.33	0.07	0.75	0.1	1.5	30	0	1;
568	1430	2800	0.14	0.75	0.1	1.5	50	0	1;
569	568	2800	0.05	0.75	0.1	1.5	80	0	1;
569	895	2533.33	0.07	0.75	0.1	1.5	100	0	0;
570	3146	5600	0.4	0.75	0.1	1.5	120	0	1;
571	2030	5066.67	0.04	0.75	0.1	1.5	30	0	0;
572	1349	3733.33	0.07	0.75	0.1	1.5	50	0	1;
573	574	1866.67	0.16	0.75	0.1	1.5	80	0	1;
574	575	3733.33	0.07	0.75	0.1	1.5	100	0	1;
575	1910	3733.33	0.29	0.75	0.1	1.5	120	0	1;
576	563	5066.67	0.13	0.75	0.1	1.5	30	0	1;
577	1574	8400	2.72	0.75	0.1	1.5	50	0	1;
578	2819	5066.67	0.04	0.75	0.1	1.5	80	0	1;
579	3154	8400	0.44	0.75	0.1	1.5	100	0	1;
580	1913	8400	0.05	0.75	0.1	1.5	120	0	1;
581	4236	5600	0.19	0.75	0.1	1.5	30	0	1;
582	894	2800	0.08	0.75	0.1	1.5	50	0	0;
582	895	2800	0.05	0.75	0.1	1.5	80	0	0;
583	588	2800	0.02	0.75	0.1	1.5	100	0	1;
583	895	2533.33	0.05	0.75	0.1	1.5	120	0	1;
584	1816	8400	0.07	0.75	0.1	1.5	30	0	1;
585	590	7600	0.08	0.75	0.1	1.5	50	0	1;
586	531	3733.33	0.43	0.75	0.1	1.5	80	0	1;
587	4393	5600	0.1	0.75	0.1	1.5	100	0	1;
588	1424	2800	0.31	0.75	0.1	1.5	120	0	1;
589	1989	2800	0.03	0.75	0.1	1.5	30	0	0;
590	1359	8400	0.07	0.75	0.1	1.5	50	0	1;