<NUMBER OF ZONES> 7388											
<NUMBER OF NODES> 7388											
<FIRST THRU NODE> 1											
<NUMBER OF LINKS> 18961											
<END OF METADATA>											
											
											
~	Init Node	Term Node	Capacity	Length	Free Flow Time	B	Power	Speed Limit	Toll	Type	;
	1	2	99999	1.794821	4.296	0.83	5.5	0	0	1	;
	2	1	99999	1.794821	4.296	0.83	5.5	0	0	1	;
	2	43	1201	1.209335	2.074286	0.83	5.5	0	0	1	;
	3	4	99999	0.723172	1.728	0.83	5.5	0	0	1	;
	3	6572	99999	1.589523	3.816	0.83	5.5	0	0	1	;
	4	3	99999	0.723172	1.728	0.83	5.5	0	0	1	;
	4	4520	5000	2.904919	4.971429	0.83	5.5	0	0	1	;
	4	6572	1201	2.350697	4.028571	0.83	5.5	0	0	1	;
	5	6	4250	0.772194	1.026667	0.83	5.5	0	0	1	;
	5	1974	4250	0.223346	0.293333	0.83	5.5	0	0	1	;
	5	1976	1201	0.035727	0.06	0.83	5.5	0	0	1	;
	6	5	4250	0.772194	1.026667	0.83	5.5	0	0	1	;
	6	4533	4250	0.254581	0.375	0.83	5.5	0	0	1	;
	6	4555	99999	1.038391	2.496	0.83	5.5	0	0	1	;
	7	8	1201	0.193364	0.285	0.83	5.5	0	0	1	;
	7	3657	1201	0.557528	0.84	0.83	5.5	0	0	1	;
	7	3658	99999	0.185119	0.38	0.83	5.5	0	0	1	;
	8	7	1201	0.193364	0.285	0.83	5.5	0	0	1	;
	8	9	1201	0.357846	0.54	0.83	5.5	0	0	1	;
	8	52	1201	0.309764	0.531429	0.83	5.5	0	0	1	;
	9	8	1201	0.357846	0.54	0.83	5.5	0	0	1	;
	9	54	99999	0.283793	0.56	0.83	5.5	0	0	1	;
	9	3674	1201	0.548412	0.825	0.83	5.5	0	0	1	;
	10	11	14025	0.414162	0.351429	0.83	5.5	0	0	1	;
	11	13	3188	0.111396	0.188571	0.83	5.5	0	0	1	;
	11	4950	14025	0.307303	0.265714	0.83	5.5	0	0	1	;
	12	13	4250	0.540866	0.72	0.83	5.5	0	0	1	;
	12	14	99999	0.403209	0.8	0.83	5.5	0	0	1	;
	12	3844	1201	0.02674	0.045	0.83	5.5	0	0	1	;
	13	4952	4250	0.218119	0.293333	0.83	5.5	0	0	1	;
	14	12	99999	0.403209	0.8	0.83	5.5	0	0	1	;
	14	15	99999	0.496062	1	0.83	5.5	0	0	1	;
	14	3840	99999	0.595052	1.2	0.83	5.5	0	0	1	;
	15	14	99999	0.496062	1	0.83	5.5	0	0	1	;
	15	5003	4250	0.153571	0.2	0.83	5.5	0	0	1	;
	15	5004	2161	0.358378	0.48	0.83	5.5	0	0	1	;
	16	17	4250	0.084415	0.106667	0.83	5.5	0	0	1	;
	16	65	4250	0.112025	0.146667	0.83	5.5	0	0	1	;
	16	3196	4250	0.203083	0.266667	0.83	5.5	0	0	1	;
	17	16	4250	0.084415	0.106667	0.83	5.5	0	0	1	;
	17	61	4250	0.517824	0.693333	0.83	5.5	0	0	1	;
	17	4923	4250	0.410022	0.546667	0.83	5.5	0	0	1	;
	18	19	99999	0.258323	0.52	0.83	5.5	0	0	1	;
	18	69	99999	0.712817	1.704	0.83	5.5	0	0	1	;
	18	4138	99999	0.619111	1.488	0.83	5.5	0	0	1	;
	19	18	99999	0.258323	0.52	0.83	5.5	0	0	1	;
	19	70	6027	0.09	0.12	0.83	5.5	0	0	1	;
	19	3671	6027	0.370578	0.493333	0.83	5.5	0	0	1	;
	20	21	4250	0.038726	0.053333	0.83	5.5	0	0	1	;
	20	4262	4250	0.064035	0.08	0.83	5.5	0	0	1	;
	20	4263	6027	0.059005	0.08	0.83	5.5	0	0	1	;
	20	7376	6027	0.079072	0.106667	0.83	5.5	0	0	1	;
	21	20	4250	0.038726	0.053333	0.83	5.5	0	0	1	;
	21	5120	4250	0.506624	0.68	0.83	5.5	0	0	1	;
	22	23	99999	0.515036	1.248	0.83	5.5	0	0	1	;
	22	4244	99999	0.918204	1.84	0.83	5.5	0	0	1	;
	22	4245	99999	0.68366	1.36	0.83	5.5	0	0	1	;
	23	22	99999	0.515036	1.248	0.83	5.5	0	0	1	;
	23	141	2161	0.713578	1.065	0.83	5.5	0	0	1	;
	23	4845	2161	0.340252	0.51	0.83	5.5	0	0	1	;
	24	25	99999	2.55011	6.12	0.83	5.5	0	0	1	;
	24	6502	99999	1.07691	2.592	0.83	5.5	0	0	1	;
	25	24	99999	2.55011	6.12	0.83	5.5	0	0	1	;
	25	26	2161	0.435796	0.66	0.83	5.5	0	0	1	;
	25	5792	2161	2.179054	3.27	0.83	5.5	0	0	1	;
	26	25	2161	0.435796	0.66	0.83	5.5	0	0	1	;
	26	4302	2161	2.958584	4.44	0.83	5.5	0	0	1	;
	26	4303	99999	0.89319	2.136	0.83	5.5	0	0	1	;
	27	28	1201	1.208086	2.074286	0.83	5.5	0	0	1	;
	27	4368	2161	0.620377	0.93	0.83	5.5	0	0	1	;
	27	4371	2161	0.226843	0.345	0.83	5.5	0	0	1	;
	28	27	1201	1.208086	2.074286	0.83	5.5	0	0	1	;
	28	5443	99999	1.225944	2.952	0.83	5.5	0	0	1	;
	28	5445	1201	0.452649	0.771429	0.83	5.5	0	0	1	;
	29	30	1201	1.710507	2.931429	0.83	5.5	0	0	1	;
	29	4378	1201	0.369187	0.634286	0.83	5.5	0	0	1	;
	29	4379	1201	0.255822	0.445714	0.83	5.5	0	0	1	;
	30	29	1201	1.710507	2.931429	0.83	5.5	0	0	1	;
	30	5501	1201	0.791553	1.354286	0.83	5.5	0	0	1	;
	30	5503	1201	0.27973	0.48	0.83	5.5	0	0	1	;
	31	32	1201	0.81181	1.388571	0.83	5.5	0	0	1	;
	31	4391	1201	0.227777	0.394286	0.83	5.5	0	0	1	;
	31	4392	1201	0.287845	0.497143	0.83	5.5	0	0	1	;
	31	6584	1201	1.452763	2.485714	0.83	5.5	0	0	1	;
	32	31	1201	0.81181	1.388571	0.83	5.5	0	0	1	;
	32	104	99999	0.740284	1.776	0.83	5.5	0	0	1	;
	32	5816	1201	0.866493	1.491429	0.83	5.5	0	0	1	;
	32	5818	1201	0.794825	1.354286	0.83	5.5	0	0	1	;
	33	34	1201	0.502611	0.857143	0.83	5.5	0	0	1	;
	33	4327	99999	0.731803	1.46	0.83	5.5	0	0	1	;
	33	4393	1201	0.502029	0.75	0.83	5.5	0	0	1	;
	34	33	1201	0.502611	0.857143	0.83	5.5	0	0	1	;
	34	5798	1201	1.161769	1.988571	0.83	5.5	0	0	1	;
	34	5823	1201	0.0978	0.171429	0.83	5.5	0	0	1	;
	35	36	99999	0.657975	1.584	0.83	5.5	0	0	1	;
	36	35	99999	0.657975	1.584	0.83	5.5	0	0	1	;
	36	79	1201	0.088385	0.154286	0.83	5.5	0	0	1	;
	36	5505	1201	0.039569	0.068571	0.83	5.5	0	0	1	;
	37	38	1201	0.957436	1.645714	0.83	5.5	0	0	1	;
	37	4397	1201	0.79072	1.354286	0.83	5.5	0	0	1	;
	37	4403	1201	0.69523	1.2	0.83	5.5	0	0	1	;
	38	37	1201	0.957436	1.645714	0.83	5.5	0	0	1	;
	38	39	1201	0.856212	1.474286	0.83	5.5	0	0	1	;
	39	38	1201	0.856212	1.474286	0.83	5.5	0	0	1	;
	39	40	1201	0.869995	1.491429	0.83	5.5	0	0	1	;
	39	105	99999	1.209603	2.904	0.83	5.5	0	0	1	;
	39	4407	1201	0.775227	1.337143	0.83	5.5	0	0	1	;
	40	39	1201	0.869995	1.491429	0.83	5.5	0	0	1	;
	40	106	1201	0.149896	0.257143	0.83	5.5	0	0	1	;
	40	108	1201	0.950728	1.628571	0.83	5.5	0	0	1	;
	41	42	3825	2.367215	3.555	0.83	5.5	0	0	1	;
	41	4412	99999	1.666963	4.008	0.83	5.5	0	0	1	;
	41	4413	3825	1.375986	17.07	0.83	5.5	0	0	1	;
	42	41	3825	2.367215	3.555	0.83	5.5	0	0	1	;
	42	393	3825	1.441222	2.16	0.83	5.5	0	0	1	;
	42	395	1201	1.228589	2.108571	0.83	5.5	0	0	1	;
	43	2	1201	1.209335	2.074286	0.83	5.5	0	0	1	;
	43	159	1201	2.891839	4.954286	0.83	5.5	0	0	1	;
	43	395	1201	1.14033	1.954286	0.83	5.5	0	0	1	;
	44	45	99999	1.626319	3.912	0.83	5.5	0	0	1	;
	45	44	99999	1.626319	3.912	0.83	5.5	0	0	1	;
	45	1452	4250	1.81891	2.73	0.83	5.5	0	0	1	;
	45	1559	4250	0.633403	0.945	0.83	5.5	0	0	1	;
	46	47	99999	1.034376	2.472	0.83	5.5	0	0	1	;
	47	46	99999	1.034376	2.472	0.83	5.5	0	0	1	;
	47	2005	1201	1.075868	1.851429	0.83	5.5	0	0	1	;
	48	49	1201	3.027415	5.194286	0.83	5.5	0	0	1	;
	48	4495	1201	3.822958	6.548571	0.83	5.5	0	0	1	;
	48	4528	1201	2.166292	3.72	0.83	5.5	0	0	1	;
	49	48	1201	3.027415	5.194286	0.83	5.5	0	0	1	;
	49	1974	1201	0.040548	0.068571	0.83	5.5	0	0	1	;
	50	51	1201	1.021292	1.748571	0.83	5.5	0	0	1	;
	50	4588	99999	0.907707	2.184	0.83	5.5	0	0	1	;
	50	4596	1201	0.082826	0.137143	0.83	5.5	0	0	1	;
	51	50	1201	1.021292	1.748571	0.83	5.5	0	0	1	;
	51	823	1201	0.053298	0.075	0.83	5.5	0	0	1	;
	51	2113	99999	0.374148	0.74	0.83	5.5	0	0	1	;
	52	8	1201	0.309764	0.531429	0.83	5.5	0	0	1	;
	52	53	1201	0.509402	0.874286	0.83	5.5	0	0	1	;
	52	4980	99999	0.605991	1.464	0.83	5.5	0	0	1	;
	53	52	1201	0.509402	0.874286	0.83	5.5	0	0	1	;
	53	884	99999	0.360206	0.72	0.83	5.5	0	0	1	;
	53	3657	1201	0.613932	0.915	0.83	5.5	0	0	1	;
	53	3658	99999	0.282394	0.56	0.83	5.5	0	0	1	;
	54	9	99999	0.283793	0.56	0.83	5.5	0	0	1	;
	54	55	99999	0.585656	1.18	0.83	5.5	0	0	1	;
	55	54	99999	0.585656	1.18	0.83	5.5	0	0	1	;
	55	56	4250	0.149604	0.2	0.83	5.5	0	0	1	;
	55	4990	4250	0.570612	0.76	0.83	5.5	0	0	1	;
	56	55	4250	0.149604	0.2	0.83	5.5	0	0	1	;
	56	58	2401	0.136035	0.186667	0.83	5.5	0	0	1	;
	56	3600	4250	0.497477	0.666667	0.83	5.5	0	0	1	;
	56	3674	1201	0.179748	0.27	0.83	5.5	0	0	1	;
	57	58	4250	0.451157	0.6	0.83	5.5	0	0	1	;
	57	59	3188	0.068251	0.12	0.83	5.5	0	0	1	;
	58	56	2401	0.136035	0.186667	0.83	5.5	0	0	1	;
	58	3843	4250	0.345177	0.466667	0.83	5.5	0	0	1	;
	58	3844	1201	0.030059	0.045	0.83	5.5	0	0	1	;
	59	60	14025	0.377106	0.325714	0.83	5.5	0	0	1	;
	60	3836	14025	0.177181	0.154286	0.83	5.5	0	0	1	;
	61	3786	3188	0.1695	0.291429	0.83	5.5	0	0	1	;
	61	3851	4250	0.773796	1.026667	0.83	5.5	0	0	1	;
	62	63	14025	0.432452	0.368571	0.83	5.5	0	0	1	;
	63	3786	14025	0.31916	0.274286	0.83	5.5	0	0	1	;
	64	66	3188	0.109797	0.188571	0.83	5.5	0	0	1	;
	64	140	4250	0.257154	0.346667	0.83	5.5	0	0	1	;
	65	64	4250	0.122488	0.16	0.83	5.5	0	0	1	;
	65	3197	4250	0.039214	0.053333	0.83	5.5	0	0	1	;
	66	5086	14025	0.228423	0.197143	0.83	5.5	0	0	1	;
	67	66	14025	0.264083	0.222857	0.83	5.5	0	0	1	;
	68	69	99999	0.423876	0.63	0.83	5.5	0	0	1	;
	68	3597	99999	0.43814	0.88	0.83	5.5	0	0	1	;
	69	18	99999	0.712817	1.704	0.83	5.5	0	0	1	;
	69	68	99999	0.423876	0.63	0.83	5.5	0	0	1	;
	69	137	4250	0.173555	0.255	0.83	5.5	0	0	1	;
	69	138	961	0.49362	0.753846	0.83	5.5	0	0	1	;
	69	4218	4250	0.668515	1.005	0.83	5.5	0	0	1	;
	70	19	6027	0.09	0.12	0.83	5.5	0	0	1	;
	70	7376	6027	0.284616	0.373333	0.83	5.5	0	0	1	;
	71	72	4250	0.285785	0.386667	0.83	5.5	0	0	1	;
	72	4264	4250	0.023119	0.024	0.83	5.5	0	0	1	;
	73	71	3188	0.0916	0.154286	0.83	5.5	0	0	1	;
	73	74	14025	0.696317	0.6	0.83	5.5	0	0	1	;
	74	4242	14025	0.477179	0.384	0.83	5.5	0	0	1	;
	75	5111	14025	0.428889	0.368571	0.83	5.5	0	0	1	;
	76	75	14025	0.538039	0.462857	0.83	5.5	0	0	1	;
	77	75	3188	0.099074	0.171429	0.83	5.5	0	0	1	;
	77	5121	4250	0.564666	0.746667	0.83	5.5	0	0	1	;
	78	77	4250	0.329182	0.44	0.83	5.5	0	0	1	;
	79	36	1201	0.088385	0.154286	0.83	5.5	0	0	1	;
	79	4400	1201	1.054937	1.8	0.83	5.5	0	0	1	;
	80	81	1201	0.283573	0.48	0.83	5.5	0	0	1	;
	80	5493	1201	1.270358	2.177143	0.83	5.5	0	0	1	;
	80	5509	1201	0.360648	0.617143	0.83	5.5	0	0	1	;
	81	80	1201	0.283573	0.48	0.83	5.5	0	0	1	;
	81	6485	1201	0.329769	0.565714	0.83	5.5	0	0	1	;
	82	83	1201	0.902947	1.542857	0.83	5.5	0	0	1	;
	82	120	1201	1.515364	2.605714	0.83	5.5	0	0	1	;
	82	5516	1201	0.987594	1.697143	0.83	5.5	0	0	1	;
	83	82	1201	0.902947	1.542857	0.83	5.5	0	0	1	;
	83	85	1201	1.331774	2.28	0.83	5.5	0	0	1	;
	83	5931	99999	0.855235	2.064	0.83	5.5	0	0	1	;
	84	85	1201	0.816178	1.405714	0.83	5.5	0	0	1	;
	84	86	1201	0.464271	0.788571	0.83	5.5	0	0	1	;
	84	5518	99999	0.913931	2.184	0.83	5.5	0	0	1	;
	85	83	1201	1.331774	2.28	0.83	5.5	0	0	1	;
	85	84	1201	0.816178	1.405714	0.83	5.5	0	0	1	;
	85	5858	1201	1.657172	2.845714	0.83	5.5	0	0	1	;
	85	5872	99999	0.840868	2.016	0.83	5.5	0	0	1	;
	86	84	1201	0.464271	0.788571	0.83	5.5	0	0	1	;
	86	87	3825	1.449741	2.175	0.83	5.5	0	0	1	;
	86	5592	3825	0.493579	0.735	0.83	5.5	0	0	1	;
	87	86	3825	1.449741	2.175	0.83	5.5	0	0	1	;
	87	121	99999	1.772846	4.248	0.83	5.5	0	0	1	;
	87	5872	99999	0.424298	1.008	0.83	5.5	0	0	1	;
	87	5963	3825	1.2033	1.8	0.83	5.5	0	0	1	;
	88	89	1201	1.016299	1.748571	0.83	5.5	0	0	1	;
	88	122	1201	1.103035	1.885714	0.83	5.5	0	0	1	;
	88	5540	99999	0.723375	1.728	0.83	5.5	0	0	1	;
	89	88	1201	1.016299	1.748571	0.83	5.5	0	0	1	;
	89	123	1201	0.653707	1.114286	0.83	5.5	0	0	1	;
	89	5945	1201	0.979379	1.68	0.83	5.5	0	0	1	;
	89	5965	1201	1.065293	1.834286	0.83	5.5	0	0	1	;
	90	91	2161	0.946973	1.425	0.83	5.5	0	0	1	;
	90	4474	99999	1.534977	3.672	0.83	5.5	0	0	1	;
	90	5601	2161	1.611259	2.415	0.83	5.5	0	0	1	;
	91	90	2161	0.946973	1.425	0.83	5.5	0	0	1	;
	91	93	1201	1.322808	2.262857	0.83	5.5	0	0	1	;
	91	5966	2161	0.790765	1.185	0.83	5.5	0	0	1	;
	92	93	1201	1.349522	2.314286	0.83	5.5	0	0	1	;
	92	125	1201	1.529296	2.622857	0.83	5.5	0	0	1	;
	92	4475	1201	0.721022	1.234286	0.83	5.5	0	0	1	;
	92	5760	99999	0.505621	1.224	0.83	5.5	0	0	1	;
	93	91	1201	1.322808	2.262857	0.83	5.5	0	0	1	;
	93	92	1201	1.349522	2.314286	0.83	5.5	0	0	1	;
	93	4474	99999	0.927707	2.232	0.83	5.5	0	0	1	;
	93	5967	99999	0.871761	2.088	0.83	5.5	0	0	1	;
	94	95	99999	0.966926	2.328	0.83	5.5	0	0	1	;
	94	129	99999	1.156034	2.784	0.83	5.5	0	0	1	;
	94	5756	99999	1.135331	2.736	0.83	5.5	0	0	1	;
	94	6712	99999	0.501288	1.2	0.83	5.5	0	0	1	;
	95	94	99999	0.966926	2.328	0.83	5.5	0	0	1	;
	95	97	1201	0.918008	1.577143	0.83	5.5	0	0	1	;
	95	6149	1201	0.692699	1.182857	0.83	5.5	0	0	1	;
	95	6150	99999	1.582644	3.792	0.83	5.5	0	0	1	;
	96	97	1201	0.590153	1.011429	0.83	5.5	0	0	1	;
	96	100	1201	1.222848	2.091429	0.83	5.5	0	0	1	;
	96	133	1201	1.671504	2.862857	0.83	5.5	0	0	1	;
	96	5725	99999	1.055765	2.544	0.83	5.5	0	0	1	;
	97	95	1201	0.918008	1.577143	0.83	5.5	0	0	1	;
	97	96	1201	0.590153	1.011429	0.83	5.5	0	0	1	;
	97	130	1201	0.926299	1.594286	0.83	5.5	0	0	1	;
	98	99	1201	0.509257	0.874286	0.83	5.5	0	0	1	;
	98	5634	99999	1.281397	3.072	0.83	5.5	0	0	1	;
	98	5716	1201	1.429296	2.451429	0.83	5.5	0	0	1	;
	98	5721	99999	1.653273	3.96	0.83	5.5	0	0	1	;
	99	98	1201	0.509257	0.874286	0.83	5.5	0	0	1	;
	99	6702	1201	1.401912	2.4	0.83	5.5	0	0	1	;
	99	6706	1201	1.388503	2.382857	0.83	5.5	0	0	1	;
	100	96	1201	1.222848	2.091429	0.83	5.5	0	0	1	;
	100	101	1201	1.289839	2.211429	0.83	5.5	0	0	1	;
	100	5763	1201	1.557975	2.674286	0.83	5.5	0	0	1	;
	101	100	1201	1.289839	2.211429	0.83	5.5	0	0	1	;
	101	131	99999	1.022416	2.448	0.83	5.5	0	0	1	;
	101	6158	1201	0.544867	0.925714	0.83	5.5	0	0	1	;
	101	6159	99999	0.729435	1.752	0.83	5.5	0	0	1	;
	102	103	1201	1.977631	3.394286	0.83	5.5	0	0	1	;
	102	5788	99999	1.785436	4.296	0.83	5.5	0	0	1	;
	102	5794	1201	0.295484	0.514286	0.83	5.5	0	0	1	;
	103	102	1201	1.977631	3.394286	0.83	5.5	0	0	1	;
	103	104	99999	0.79965	1.92	0.83	5.5	0	0	1	;
	103	4391	1201	0.483441	0.822857	0.83	5.5	0	0	1	;
	104	32	99999	0.740284	1.776	0.83	5.5	0	0	1	;
	104	103	99999	0.79965	1.92	0.83	5.5	0	0	1	;
	105	39	99999	1.209603	2.904	0.83	5.5	0	0	1	;
	105	5826	99999	0.801009	1.92	0.83	5.5	0	0	1	;
	106	40	1201	0.149896	0.257143	0.83	5.5	0	0	1	;
	106	114	1201	0.555985	0.96	0.83	5.5	0	0	1	;
	106	5926	1201	1.179465	2.022857	0.83	5.5	0	0	1	;
	107	108	1201	2.175294	3.737143	0.83	5.5	0	0	1	;
	107	111	1201	1.336907	2.297143	0.83	5.5	0	0	1	;
	107	5825	1201	0.614056	1.045714	0.83	5.5	0	0	1	;
	108	40	1201	0.950728	1.628571	0.83	5.5	0	0	1	;
	108	107	1201	2.175294	3.737143	0.83	5.5	0	0	1	;
	108	5826	1201	0.984667	1.68	0.83	5.5	0	0	1	;
	109	110	99999	1.494171	3.576	0.83	5.5	0	0	1	;
	109	111	99999	2.152978	5.16	0.83	5.5	0	0	1	;
	110	109	99999	1.494171	3.576	0.83	5.5	0	0	1	;
	110	112	1201	3.124328	5.348571	0.83	5.5	0	0	1	;
	110	5860	99999	1.465633	3.528	0.83	5.5	0	0	1	;
	110	5907	1201	1.724582	2.948571	0.83	5.5	0	0	1	;
	111	107	1201	1.336907	2.297143	0.83	5.5	0	0	1	;
	111	109	99999	2.152978	5.16	0.83	5.5	0	0	1	;
	111	5907	1201	1.013631	1.731429	0.83	5.5	0	0	1	;
	111	5920	1201	0.993069	1.697143	0.83	5.5	0	0	1	;
	112	110	1201	3.124328	5.348571	0.83	5.5	0	0	1	;
	112	113	1201	0.353423	0.6	0.83	5.5	0	0	1	;
	112	6484	1201	0.204784	0.342857	0.83	5.5	0	0	1	;
	113	112	1201	0.353423	0.6	0.83	5.5	0	0	1	;
	113	5861	1201	0.493163	0.84	0.83	5.5	0	0	1	;
	113	6987	99999	0.358455	0.864	0.83	5.5	0	0	1	;
	114	106	1201	0.555985	0.96	0.83	5.5	0	0	1	;
	114	116	1201	0.265104	0.462857	0.83	5.5	0	0	1	;
	115	116	99999	0.844019	2.016	0.83	5.5	0	0	1	;
	115	5923	99999	0.847586	2.04	0.83	5.5	0	0	1	;
	116	114	1201	0.265104	0.462857	0.83	5.5	0	0	1	;
	116	115	99999	0.844019	2.016	0.83	5.5	0	0	1	;
	116	5509	1201	1.18839	2.04	0.83	5.5	0	0	1	;
	117	118	1201	0.307226	0.531429	0.83	5.5	0	0	1	;
	117	5923	1201	0.680315	1.165714	0.83	5.5	0	0	1	;
	118	117	1201	0.307226	0.531429	0.83	5.5	0	0	1	;
	118	5498	1201	0.136502	0.24	0.83	5.5	0	0	1	;
	119	120	1201	0.268682	0.462857	0.83	5.5	0	0	1	;
	119	5928	1201	0.878894	1.508571	0.83	5.5	0	0	1	;
	119	5929	1201	2.059519	3.531429	0.83	5.5	0	0	1	;
	120	82	1201	1.515364	2.605714	0.83	5.5	0	0	1	;
	120	119	1201	0.268682	0.462857	0.83	5.5	0	0	1	;
	120	6561	1201	1.21551	2.091429	0.83	5.5	0	0	1	;
	121	87	99999	1.772846	4.248	0.83	5.5	0	0	1	;
	121	122	99999	1.844305	4.416	0.83	5.5	0	0	1	;
	121	5586	99999	1.951523	4.68	0.83	5.5	0	0	1	;
	121	5965	99999	0.99733	2.4	0.83	5.5	0	0	1	;
	122	88	1201	1.103035	1.885714	0.83	5.5	0	0	1	;
	122	121	99999	1.844305	4.416	0.83	5.5	0	0	1	;
	122	5541	1201	0.565405	0.977143	0.83	5.5	0	0	1	;
	122	5589	1201	0.840567	1.44	0.83	5.5	0	0	1	;
	123	89	1201	0.653707	1.114286	0.83	5.5	0	0	1	;
	123	124	1201	0.372353	0.634286	0.83	5.5	0	0	1	;
	123	5540	99999	0.919025	2.208	0.83	5.5	0	0	1	;
	123	5952	99999	1.093464	2.616	0.83	5.5	0	0	1	;
	124	123	1201	0.372353	0.634286	0.83	5.5	0	0	1	;
	124	5538	1201	2.595194	4.457143	0.83	5.5	0	0	1	;
	125	92	1201	1.529296	2.622857	0.83	5.5	0	0	1	;
	125	128	1201	1.507891	2.588571	0.83	5.5	0	0	1	;
	125	5967	99999	0.647986	1.56	0.83	5.5	0	0	1	;
	125	5970	1201	0.856875	1.474286	0.83	5.5	0	0	1	;
	126	127	4250	0.751874	1.125	0.83	5.5	0	0	1	;
	126	5831	4250	0.475833	0.72	0.83	5.5	0	0	1	;
	126	7066	99999	0.350147	0.84	0.83	5.5	0	0	1	;
	127	126	4250	0.751874	1.125	0.83	5.5	0	0	1	;
	127	5832	2125	0.336843	0.582857	0.83	5.5	0	0	1	;
	127	6752	4250	0.215338	0.33	0.83	5.5	0	0	1	;
	128	125	1201	1.507891	2.588571	0.83	5.5	0	0	1	;
	128	129	2161	1.990198	2.985	0.83	5.5	0	0	1	;
	128	6149	1201	1.543445	2.64	0.83	5.5	0	0	1	;
	128	6153	2161	1.311283	1.965	0.83	5.5	0	0	1	;
	129	94	99999	1.156034	2.784	0.83	5.5	0	0	1	;
	129	128	2161	1.990198	2.985	0.83	5.5	0	0	1	;
	129	5759	2161	1.450641	2.175	0.83	5.5	0	0	1	;
	129	5760	99999	0.721772	1.728	0.83	5.5	0	0	1	;
	130	97	1201	0.926299	1.594286	0.83	5.5	0	0	1	;
	130	5724	1201	1.725476	2.965714	0.83	5.5	0	0	1	;
	130	5756	1201	0.508999	0.874286	0.83	5.5	0	0	1	;
	131	101	99999	1.022416	2.448	0.83	5.5	0	0	1	;
	131	132	99999	1.194574	2.856	0.83	5.5	0	0	1	;
	132	131	99999	1.194574	2.856	0.83	5.5	0	0	1	;
	132	134	1201	3.223066	5.52	0.83	5.5	0	0	1	;
	132	136	1201	2.137188	3.668571	0.83	5.5	0	0	1	;
	132	5762	1201	0.76093	1.302857	0.83	5.5	0	0	1	;
	133	96	1201	1.671504	2.862857	0.83	5.5	0	0	1	;
	133	6136	1201	0.312892	0.531429	0.83	5.5	0	0	1	;
	133	6159	99999	0.675341	1.632	0.83	5.5	0	0	1	;
	134	132	1201	3.223066	5.52	0.83	5.5	0	0	1	;
	134	6139	1201	0.748494	1.285714	0.83	5.5	0	0	1	;
	134	6158	1201	0.902073	1.542857	0.83	5.5	0	0	1	;
	135	136	1201	0.1503	0.257143	0.83	5.5	0	0	1	;
	135	6175	1201	0.871852	18.62	0.83	5.5	0	0	1	;
	135	6646	1201	1.449357	2.485714	0.83	5.5	0	0	1	;
	135	6702	1201	2.216114	3.805714	0.83	5.5	0	0	1	;
	136	132	1201	2.137188	3.668571	0.83	5.5	0	0	1	;
	136	135	1201	0.1503	0.257143	0.83	5.5	0	0	1	;
	136	6647	1201	0.752681	1.285714	0.83	5.5	0	0	1	;
	137	69	4250	0.173555	0.255	0.83	5.5	0	0	1	;
	137	3668	4250	0.354017	0.525	0.83	5.5	0	0	1	;
	137	5103	961	0.362472	0.553846	0.83	5.5	0	0	1	;
	138	69	961	0.49362	0.753846	0.83	5.5	0	0	1	;
	138	139	961	0.262947	0.4	0.83	5.5	0	0	1	;
	138	5085	961	0.256823	0.4	0.83	5.5	0	0	1	;
	139	138	961	0.262947	0.4	0.83	5.5	0	0	1	;
	139	140	961	0.342004	0.523077	0.83	5.5	0	0	1	;
	140	139	961	0.342004	0.523077	0.83	5.5	0	0	1	;
	140	5087	961	0.072496	0.107692	0.83	5.5	0	0	1	;
	140	5090	4250	0.249956	0.3	0.83	5.5	0	0	1	;
	141	23	2161	0.713578	1.065	0.83	5.5	0	0	1	;
	141	4371	4250	0.056388	0.09	0.83	5.5	0	0	1	;
	142	143	961	0.874388	1.864286	0.83	5.5	0	0	1	;
	142	276	961	1.77609	3.814286	0.83	5.5	0	0	1	;
	142	277	99999	0.932578	2.232	0.83	5.5	0	0	1	;
	143	142	961	0.874388	1.864286	0.83	5.5	0	0	1	;
	143	187	961	3.845708	8.25	0.83	5.5	0	0	1	;
	144	145	1201	0.478122	0.822857	0.83	5.5	0	0	1	;
	144	209	99999	1.062044	2.544	0.83	5.5	0	0	1	;
	144	241	1201	1.527145	2.622857	0.83	5.5	0	0	1	;
	145	144	1201	0.478122	0.822857	0.83	5.5	0	0	1	;
	145	146	99999	1.13942	2.736	0.83	5.5	0	0	1	;
	145	148	1201	1.588701	2.725714	0.83	5.5	0	0	1	;
	146	145	99999	1.13942	2.736	0.83	5.5	0	0	1	;
	147	148	1201	1.57869	2.708571	0.83	5.5	0	0	1	;
	147	302	1201	0.369055	0.634286	0.83	5.5	0	0	1	;
	148	145	1201	1.588701	2.725714	0.83	5.5	0	0	1	;
	148	147	1201	1.57869	2.708571	0.83	5.5	0	0	1	;
	148	1067	1201	2.306665	3.96	0.83	5.5	0	0	1	;
	148	1075	99999	1.472887	3.528	0.83	5.5	0	0	1	;
	149	150	1201	2.702903	4.628571	0.83	5.5	0	0	1	;
	149	151	99999	1.581908	3.792	0.83	5.5	0	0	1	;
	149	306	1201	1.538159	2.64	0.83	5.5	0	0	1	;
	150	149	1201	2.702903	4.628571	0.83	5.5	0	0	1	;
	150	1078	1201	0.498925	0.857143	0.83	5.5	0	0	1	;
	150	1079	1201	0.069226	0.12	0.83	5.5	0	0	1	;
	151	149	99999	1.581908	3.792	0.83	5.5	0	0	1	;
	151	152	99999	2.10135	5.04	0.83	5.5	0	0	1	;
	151	222	99999	2.642032	6.336	0.83	5.5	0	0	1	;
	152	151	99999	2.10135	5.04	0.83	5.5	0	0	1	;
	152	153	1201	2.513215	4.302857	0.83	5.5	0	0	1	;
	152	1079	1201	0.514096	0.874286	0.83	5.5	0	0	1	;
	152	1081	1201	1.011353	1.731429	0.83	5.5	0	0	1	;
	153	152	1201	2.513215	4.302857	0.83	5.5	0	0	1	;
	153	154	1201	2.254488	3.857143	0.83	5.5	0	0	1	;
	153	372	1201	1.414018	2.417143	0.83	5.5	0	0	1	;
	154	153	1201	2.254488	3.857143	0.83	5.5	0	0	1	;
	154	767	99999	0.76153	1.824	0.83	5.5	0	0	1	;
	154	1478	1201	0.44394	0.754286	0.83	5.5	0	0	1	;
	155	156	1201	1.905924	3.274286	0.83	5.5	0	0	1	;
	155	325	1201	1.117873	1.92	0.83	5.5	0	0	1	;
	155	392	1201	1.80622	3.102857	0.83	5.5	0	0	1	;
	156	155	1201	1.905924	3.274286	0.83	5.5	0	0	1	;
	156	1423	1201	0.827383	1.422857	0.83	5.5	0	0	1	;
	157	158	3825	3.171657	4.755	0.83	5.5	0	0	1	;
	157	391	99999	1.988704	4.776	0.83	5.5	0	0	1	;
	157	393	3825	0.971945	1.455	0.83	5.5	0	0	1	;
	158	157	3825	3.171657	4.755	0.83	5.5	0	0	1	;
	158	214	1201	1.212569	2.074286	0.83	5.5	0	0	1	;
	158	1534	3825	3.102956	4.65	0.83	5.5	0	0	1	;
	159	43	1201	2.891839	4.954286	0.83	5.5	0	0	1	;
	159	214	1201	2.971723	5.091429	0.83	5.5	0	0	1	;
	159	394	99999	1.004292	2.4	0.83	5.5	0	0	1	;
	160	161	1201	0.661725	0.99	0.83	5.5	0	0	1	;
	160	162	961	0.278335	0.541935	0.83	5.5	0	0	1	;
	160	579	1201	0.235717	0.36	0.83	5.5	0	0	1	;
	161	160	1201	0.661725	0.99	0.83	5.5	0	0	1	;
	161	969	1201	0.203723	0.3	0.83	5.5	0	0	1	;
	161	975	99999	0.426112	0.86	0.83	5.5	0	0	1	;
	162	160	961	0.278335	0.541935	0.83	5.5	0	0	1	;
	162	163	99999	0.426177	0.86	0.83	5.5	0	0	1	;
	162	967	961	0.104235	0.193548	0.83	5.5	0	0	1	;
	163	162	99999	0.426177	0.86	0.83	5.5	0	0	1	;
	163	164	99999	0.365094	0.74	0.83	5.5	0	0	1	;
	163	573	99999	0.376876	0.76	0.83	5.5	0	0	1	;
	163	591	99999	0.401144	0.8	0.83	5.5	0	0	1	;
	164	163	99999	0.365094	0.74	0.83	5.5	0	0	1	;
	164	166	2161	0.377527	0.506667	0.83	5.5	0	0	1	;
	164	985	2161	0.158981	0.192	0.83	5.5	0	0	1	;
	165	166	2161	0.090523	0.12	0.83	5.5	0	0	1	;
	165	190	961	0.142156	0.21	0.83	5.5	0	0	1	;
	165	607	2161	0.121814	0.144	0.83	5.5	0	0	1	;
	165	609	961	0.089324	0.135	0.83	5.5	0	0	1	;
	166	164	2161	0.377527	0.506667	0.83	5.5	0	0	1	;
	166	165	2161	0.090523	0.12	0.83	5.5	0	0	1	;
	166	978	961	0.253392	0.5	0.83	5.5	0	0	1	;
	167	168	99999	0.128512	0.195	0.83	5.5	0	0	1	;
	167	535	99999	0.122038	0.18	0.83	5.5	0	0	1	;
	167	607	99999	0.096461	0.15	0.83	5.5	0	0	1	;
	168	167	99999	0.128512	0.195	0.83	5.5	0	0	1	;
	168	190	961	0.057806	0.09	0.83	5.5	0	0	1	;
	168	956	961	0.103339	0.15	0.83	5.5	0	0	1	;
	169	170	99999	0.060213	0.09	0.83	5.5	0	0	1	;
	169	192	99999	0.078421	0.12	0.83	5.5	0	0	1	;
	169	721	99999	0.065378	0.105	0.83	5.5	0	0	1	;
	169	723	99999	0.092658	0.135	0.83	5.5	0	0	1	;
	170	169	99999	0.060213	0.09	0.83	5.5	0	0	1	;
	170	193	961	0.062235	0.09	0.83	5.5	0	0	1	;
	170	954	961	0.026256	0.045	0.83	5.5	0	0	1	;
	171	172	99999	0.067036	0.105	0.83	5.5	0	0	1	;
	171	194	99999	0.047079	0.075	0.83	5.5	0	0	1	;
	171	196	99999	0.04342	0.06	0.83	5.5	0	0	1	;
	171	724	99999	0.089144	0.135	0.83	5.5	0	0	1	;
	172	171	99999	0.067036	0.105	0.83	5.5	0	0	1	;
	172	195	3825	0.026344	0.036	0.83	5.5	0	0	1	;
	172	1026	3825	0.016503	0.024	0.83	5.5	0	0	1	;
	173	174	99999	0.279061	0.42	0.83	5.5	0	0	1	;
	173	175	99999	0.214373	0.315	0.83	5.5	0	0	1	;
	173	637	99999	0.226635	0.345	0.83	5.5	0	0	1	;
	173	733	99999	0.311663	0.465	0.83	5.5	0	0	1	;
	174	173	99999	0.279061	0.42	0.83	5.5	0	0	1	;
	174	178	4250	0.084156	0.096	0.83	5.5	0	0	1	;
	174	1057	4250	0.122299	0.144	0.83	5.5	0	0	1	;
	175	173	99999	0.214373	0.315	0.83	5.5	0	0	1	;
	175	202	4250	0.04087	0.048	0.83	5.5	0	0	1	;
	175	994	4250	0.182154	0.216	0.83	5.5	0	0	1	;
	176	177	4250	0.334885	0.396	0.83	5.5	0	0	1	;
	176	206	4250	0.102723	0.12	0.83	5.5	0	0	1	;
	176	741	4250	0.06504	0.084	0.83	5.5	0	0	1	;
	177	1060	4250	0.083255	0.096	0.83	5.5	0	0	1	;
	178	174	4250	0.084156	0.096	0.83	5.5	0	0	1	;
	178	204	99999	0.190277	0.285	0.83	5.5	0	0	1	;
	178	206	4250	0.044355	0.048	0.83	5.5	0	0	1	;
	179	180	9350	0.442847	0.352	0.83	5.5	0	0	1	;
	180	893	9350	0.297184	0.24	0.83	5.5	0	0	1	;
	181	182	99999	0.291749	0.435	0.83	5.5	0	0	1	;
	181	402	99999	0.357139	0.54	0.83	5.5	0	0	1	;
	181	742	99999	0.156908	0.24	0.83	5.5	0	0	1	;
	182	181	99999	0.291749	0.435	0.83	5.5	0	0	1	;
	182	1051	4250	0.308739	0.372	0.83	5.5	0	0	1	;
	183	184	961	0.378313	0.57	0.83	5.5	0	0	1	;
	183	402	961	0.110809	0.165	0.83	5.5	0	0	1	;
	183	761	99999	0.424091	0.84	0.83	5.5	0	0	1	;
	184	183	961	0.378313	0.57	0.83	5.5	0	0	1	;
	184	907	99999	0.352434	0.7	0.83	5.5	0	0	1	;
	184	1144	961	0.593458	1.141935	0.83	5.5	0	0	1	;
	185	186	2161	0.136101	0.21	0.83	5.5	0	0	1	;
	185	758	2161	0.439264	0.66	0.83	5.5	0	0	1	;
	185	762	99999	0.384769	0.912	0.83	5.5	0	0	1	;
	185	6419	961	0.090534	0.192857	0.83	5.5	0	0	1	;
	186	185	2161	0.136101	0.21	0.83	5.5	0	0	1	;
	186	6418	2161	0.28644	0.435	0.83	5.5	0	0	1	;
	187	143	961	3.845708	8.25	0.83	5.5	0	0	1	;
	187	188	961	2.661252	5.7	0.83	5.5	0	0	1	;
	187	936	99999	1.004623	2.4	0.83	5.5	0	0	1	;
	188	187	961	2.661252	5.7	0.83	5.5	0	0	1	;
	188	189	2161	2.717411	4.08	0.83	5.5	0	0	1	;
	188	6587	2161	0.858509	1.29	0.83	5.5	0	0	1	;
	189	188	2161	2.717411	4.08	0.83	5.5	0	0	1	;
	189	271	99999	1.612993	3.864	0.83	5.5	0	0	1	;
	189	273	2161	0.927761	1.395	0.83	5.5	0	0	1	;
	190	165	961	0.142156	0.21	0.83	5.5	0	0	1	;
	190	168	961	0.057806	0.09	0.83	5.5	0	0	1	;
	190	987	99999	0.171362	0.255	0.83	5.5	0	0	1	;
	191	192	961	0.059086	0.09	0.83	5.5	0	0	1	;
	191	954	961	0.05819	0.09	0.83	5.5	0	0	1	;
	191	956	961	0.100951	0.15	0.83	5.5	0	0	1	;
	192	169	99999	0.078421	0.12	0.83	5.5	0	0	1	;
	192	191	961	0.059086	0.09	0.83	5.5	0	0	1	;
	192	535	961	0.021639	0.03	0.83	5.5	0	0	1	;
	193	170	961	0.062235	0.09	0.83	5.5	0	0	1	;
	193	194	5425	0.04788	0.06	0.83	5.5	0	0	1	;
	193	1025	961	0.103244	0.15	0.83	5.5	0	0	1	;
	193	1026	3825	0.045144	0.06	0.83	5.5	0	0	1	;
	194	171	99999	0.047079	0.075	0.83	5.5	0	0	1	;
	194	721	5425	0.02296	0.024	0.83	5.5	0	0	1	;
	195	172	3825	0.026344	0.036	0.83	5.5	0	0	1	;
	195	1018	3825	0.058442	0.072	0.83	5.5	0	0	1	;
	195	1027	6764	0.061884	0.072	0.83	5.5	0	0	1	;
	196	171	99999	0.04342	0.06	0.83	5.5	0	0	1	;
	196	195	5425	0.060021	0.072	0.83	5.5	0	0	1	;
	197	198	99999	0.092826	0.135	0.83	5.5	0	0	1	;
	197	199	99999	0.102964	0.15	0.83	5.5	0	0	1	;
	197	200	99999	0.10452	0.15	0.83	5.5	0	0	1	;
	197	1037	99999	0.055633	0.09	0.83	5.5	0	0	1	;
	198	196	5425	0.027164	0.036	0.83	5.5	0	0	1	;
	198	197	99999	0.092826	0.135	0.83	5.5	0	0	1	;
	199	197	99999	0.102964	0.15	0.83	5.5	0	0	1	;
	199	713	3825	0.066771	0.084	0.83	5.5	0	0	1	;
	199	728	3825	0.033322	0.036	0.83	5.5	0	0	1	;
	200	197	99999	0.10452	0.15	0.83	5.5	0	0	1	;
	200	201	4250	0.107131	0.132	0.83	5.5	0	0	1	;
	200	1035	4250	0.088214	0.108	0.83	5.5	0	0	1	;
	201	200	4250	0.107131	0.132	0.83	5.5	0	0	1	;
	201	689	3825	0.129631	0.156	0.83	5.5	0	0	1	;
	201	728	3825	0.049532	0.06	0.83	5.5	0	0	1	;
	201	729	961	0.053271	0.075	0.83	5.5	0	0	1	;
	202	175	4250	0.04087	0.048	0.83	5.5	0	0	1	;
	202	203	4250	0.064895	0.072	0.83	5.5	0	0	1	;
	202	1042	99999	0.252902	0.375	0.83	5.5	0	0	1	;
	203	202	4250	0.064895	0.072	0.83	5.5	0	0	1	;
	203	738	3825	0.133416	0.156	0.83	5.5	0	0	1	;
	204	178	99999	0.190277	0.285	0.83	5.5	0	0	1	;
	204	1043	99999	0.080982	0.12	0.83	5.5	0	0	1	;
	205	206	4250	0.315171	0.384	0.83	5.5	0	0	1	;
	206	176	4250	0.102723	0.12	0.83	5.5	0	0	1	;
	206	178	4250	0.044355	0.048	0.83	5.5	0	0	1	;
	206	637	4250	0.182981	0.216	0.83	5.5	0	0	1	;
	207	208	9350	0.500827	0.4	0.83	5.5	0	0	1	;
	207	1046	3188	0.057371	0.102857	0.83	5.5	0	0	1	;
	208	748	9350	0.10885	0.088	0.83	5.5	0	0	1	;
	209	144	99999	1.062044	2.544	0.83	5.5	0	0	1	;
	210	211	3825	0.82498	1.23	0.83	5.5	0	0	1	;
	210	1479	99999	0.711321	1.704	0.83	5.5	0	0	1	;
	210	1483	3825	0.366953	0.555	0.83	5.5	0	0	1	;
	211	210	3825	0.82498	1.23	0.83	5.5	0	0	1	;
	211	385	3825	0.917094	1.38	0.83	5.5	0	0	1	;
	212	213	1201	0.966239	1.662857	0.83	5.5	0	0	1	;
	212	1486	961	0.711734	1.521429	0.83	5.5	0	0	1	;
	212	1487	1201	0.394973	0.668571	0.83	5.5	0	0	1	;
	212	1492	99999	1.115544	2.688	0.83	5.5	0	0	1	;
	213	212	1201	0.966239	1.662857	0.83	5.5	0	0	1	;
	213	388	99999	0.950963	2.28	0.83	5.5	0	0	1	;
	213	389	1201	0.24465	0.411429	0.83	5.5	0	0	1	;
	214	158	1201	1.212569	2.074286	0.83	5.5	0	0	1	;
	214	159	1201	2.971723	5.091429	0.83	5.5	0	0	1	;
	214	1542	99999	1.098465	2.64	0.83	5.5	0	0	1	;
	215	216	99999	2.579272	6.192	0.83	5.5	0	0	1	;
	216	215	99999	2.579272	6.192	0.83	5.5	0	0	1	;
	216	217	1201	2.241969	3.84	0.83	5.5	0	0	1	;
	216	308	1201	1.871874	3.205714	0.83	5.5	0	0	1	;
	216	318	961	2.494545	5.335714	0.83	5.5	0	0	1	;
	217	216	1201	2.241969	3.84	0.83	5.5	0	0	1	;
	217	232	1201	0.278912	0.48	0.83	5.5	0	0	1	;
	217	255	99999	1.490139	3.576	0.83	5.5	0	0	1	;
	218	219	961	1.045252	2.25	0.83	5.5	0	0	1	;
	218	220	961	2.998245	6.428571	0.83	5.5	0	0	1	;
	218	224	1201	1.538894	2.64	0.83	5.5	0	0	1	;
	218	298	961	0.922926	1.971429	0.83	5.5	0	0	1	;
	219	218	961	1.045252	2.25	0.83	5.5	0	0	1	;
	219	318	961	0.724374	1.542857	0.83	5.5	0	0	1	;
	219	343	99999	1.263145	3.024	0.83	5.5	0	0	1	;
	219	361	961	1.804784	3.857143	0.83	5.5	0	0	1	;
	220	218	961	2.998245	6.428571	0.83	5.5	0	0	1	;
	220	221	1201	1.149072	1.971429	0.83	5.5	0	0	1	;
	220	307	1201	0.913165	1.56	0.83	5.5	0	0	1	;
	221	220	1201	1.149072	1.971429	0.83	5.5	0	0	1	;
	221	343	99999	1.182712	2.832	0.83	5.5	0	0	1	;
	221	370	1201	0.563899	0.96	0.83	5.5	0	0	1	;
	222	151	99999	2.642032	6.336	0.83	5.5	0	0	1	;
	222	370	1201	0.048119	0.075	0.83	5.5	0	0	1	;
	222	372	1201	1.291437	2.211429	0.83	5.5	0	0	1	;
	223	224	99999	0.975434	2.352	0.83	5.5	0	0	1	;
	224	218	1201	1.538894	2.64	0.83	5.5	0	0	1	;
	224	223	99999	0.975434	2.352	0.83	5.5	0	0	1	;
	224	232	1201	1.201398	2.057143	0.83	5.5	0	0	1	;
	225	226	961	2.912373	6.235714	0.83	5.5	0	0	1	;
	225	245	961	3.517438	7.542857	0.83	5.5	0	0	1	;
	226	225	961	2.912373	6.235714	0.83	5.5	0	0	1	;
	226	233	99999	1.55619	3.744	0.83	5.5	0	0	1	;
	226	269	961	0.447817	0.964286	0.83	5.5	0	0	1	;
	227	228	1201	2.254975	3.857143	0.83	5.5	0	0	1	;
	227	242	1201	1.911881	3.274286	0.83	5.5	0	0	1	;
	227	248	1201	1.468282	2.52	0.83	5.5	0	0	1	;
	228	227	1201	2.254975	3.857143	0.83	5.5	0	0	1	;
	228	280	1201	1.730283	2.965714	0.83	5.5	0	0	1	;
	228	294	99999	1.619521	3.888	0.83	5.5	0	0	1	;
	229	230	961	1.920712	4.114286	0.83	5.5	0	0	1	;
	229	248	961	3.10832	6.664286	0.83	5.5	0	0	1	;
	229	250	99999	1.315093	3.168	0.83	5.5	0	0	1	;
	229	253	961	1.440263	3.085714	0.83	5.5	0	0	1	;
	229	254	961	0.861123	1.842857	0.83	5.5	0	0	1	;
	230	229	961	1.920712	4.114286	0.83	5.5	0	0	1	;
	230	244	1201	0.855945	1.474286	0.83	5.5	0	0	1	;