<NUMBER OF ZONES> 38
<TOTAL OD FLOW> 16659.919999999976000
<END OF METADATA> 


Origin 1 
2 	: 	55.610000; 	3 	: 	75.590000; 	4 	: 	67.540000; 	5 	: 	74.330000; 	6 	: 	3.480000; 	
7 	: 	7.580000; 	8 	: 	6.570000; 	9 	: 	40.160000; 	10 	: 	29.240000; 	11 	: 	69.600000; 	
12 	: 	3.090000; 	13 	: 	10.790000; 	14 	: 	94.310000; 	15 	: 	24.880000; 	16 	: 	11.420000; 	
17 	: 	30.330000; 	18 	: 	10.260000; 	19 	: 	1.260000; 	20 	: 	3.130000; 	21 	: 	12.740000; 	
22 	: 	19.180000; 	23 	: 	40.820000; 	24 	: 	47.690000; 	25 	: 	3.130000; 	26 	: 	6.650000; 	
27 	: 	5.530000; 	28 	: 	6.390000; 	29 	: 	9.250000; 	30 	: 	7.290000; 	31 	: 	28.690000; 	
32 	: 	5.080000; 	33 	: 	7.980000; 	34 	: 	18.730000; 	35 	: 	3.150000; 	36 	: 	2.820000; 	
37 	: 	14.520000; 	38 	: 	2.570000; 	

Origin 2 
1 	: 	56.310000; 	3 	: 	97.800000; 	4 	: 	67.660000; 	5 	: 	59.730000; 	6 	: 	4.490000; 	
7 	: 	9.760000; 	8 	: 	8.570000; 	9 	: 	41.930000; 	10 	: 	27.110000; 	11 	: 	62.100000; 	
12 	: 	3.520000; 	13 	: 	12.450000; 	14 	: 	66.100000; 	15 	: 	22.890000; 	16 	: 	13.440000; 	
17 	: 	34.680000; 	18 	: 	12.080000; 	19 	: 	1.860000; 	20 	: 	4.200000; 	21 	: 	10.830000; 	
22 	: 	20.480000; 	23 	: 	36.960000; 	24 	: 	50.930000; 	25 	: 	3.560000; 	26 	: 	8.040000; 	
27 	: 	6.660000; 	28 	: 	7.400000; 	29 	: 	11.190000; 	30 	: 	9.560000; 	31 	: 	28.670000; 	
32 	: 	6.170000; 	33 	: 	9.980000; 	34 	: 	20.600000; 	35 	: 	3.720000; 	36 	: 	4.020000; 	
37 	: 	15.370000; 	38 	: 	4.010000; 	

Origin 3 
1 	: 	75.140000; 	2 	: 	96.080000; 	4 	: 	90.270000; 	5 	: 	104.680000; 	6 	: 	3.110000; 	
7 	: 	7.030000; 	8 	: 	5.240000; 	9 	: 	34.550000; 	10 	: 	33.090000; 	11 	: 	71.290000; 	
12 	: 	2.730000; 	13 	: 	10.010000; 	14 	: 	95.780000; 	15 	: 	22.900000; 	16 	: 	12.620000; 	
17 	: 	37.900000; 	18 	: 	10.540000; 	19 	: 	0.950000; 	20 	: 	2.470000; 	21 	: 	14.710000; 	
22 	: 	16.870000; 	23 	: 	35.590000; 	24 	: 	53.900000; 	25 	: 	2.910000; 	26 	: 	5.720000; 	
27 	: 	5.150000; 	28 	: 	6.070000; 	29 	: 	9.570000; 	30 	: 	4.300000; 	31 	: 	26.340000; 	
32 	: 	4.680000; 	33 	: 	7.650000; 	34 	: 	20.800000; 	35 	: 	2.430000; 	36 	: 	2.400000; 	
37 	: 	21.100000; 	38 	: 	2.050000; 	

Origin 4 
1 	: 	67.950000; 	2 	: 	67.210000; 	3 	: 	91.310000; 	5 	: 	72.250000; 	6 	: 	4.130000; 	
7 	: 	10.000000; 	8 	: 	8.010000; 	9 	: 	39.490000; 	10 	: 	29.570000; 	11 	: 	79.100000; 	
12 	: 	3.000000; 	13 	: 	11.430000; 	14 	: 	107.650000; 	15 	: 	28.190000; 	16 	: 	13.250000; 	
17 	: 	38.280000; 	18 	: 	12.870000; 	19 	: 	1.500000; 	20 	: 	3.700000; 	21 	: 	13.440000; 	
22 	: 	18.910000; 	23 	: 	43.640000; 	24 	: 	51.670000; 	25 	: 	3.240000; 	26 	: 	7.300000; 	
27 	: 	6.280000; 	28 	: 	7.050000; 	29 	: 	9.270000; 	30 	: 	6.900000; 	31 	: 	34.910000; 	
32 	: 	5.950000; 	33 	: 	10.010000; 	34 	: 	19.240000; 	35 	: 	3.190000; 	36 	: 	2.670000; 	
37 	: 	23.110000; 	38 	: 	3.500000; 	

Origin 5 
1 	: 	73.200000; 	2 	: 	58.110000; 	3 	: 	103.840000; 	4 	: 	70.750000; 	6 	: 	4.700000; 	
7 	: 	11.430000; 	8 	: 	11.180000; 	9 	: 	41.940000; 	10 	: 	31.380000; 	11 	: 	82.090000; 	
12 	: 	3.330000; 	13 	: 	12.890000; 	14 	: 	83.720000; 	15 	: 	24.940000; 	16 	: 	14.950000; 	
17 	: 	29.440000; 	18 	: 	14.340000; 	19 	: 	2.020000; 	20 	: 	4.650000; 	21 	: 	14.020000; 	
22 	: 	21.490000; 	23 	: 	47.500000; 	24 	: 	57.480000; 	25 	: 	3.440000; 	26 	: 	8.440000; 	
27 	: 	6.920000; 	28 	: 	7.680000; 	29 	: 	10.850000; 	30 	: 	9.330000; 	31 	: 	27.140000; 	
32 	: 	6.820000; 	33 	: 	11.110000; 	34 	: 	20.830000; 	35 	: 	4.310000; 	36 	: 	3.810000; 	
37 	: 	22.800000; 	38 	: 	4.710000; 	

Origin 6 
1 	: 	3.240000; 	2 	: 	4.080000; 	3 	: 	3.670000; 	4 	: 	3.790000; 	5 	: 	4.460000; 	
7 	: 	17.300000; 	8 	: 	20.510000; 	9 	: 	2.840000; 	10 	: 	2.010000; 	11 	: 	4.960000; 	
12 	: 	5.710000; 	13 	: 	20.590000; 	14 	: 	6.660000; 	15 	: 	2.050000; 	16 	: 	0.700000; 	
17 	: 	2.040000; 	18 	: 	20.370000; 	19 	: 	3.680000; 	20 	: 	6.130000; 	21 	: 	0.740000; 	
22 	: 	1.820000; 	23 	: 	2.900000; 	24 	: 	3.270000; 	25 	: 	5.410000; 	26 	: 	10.050000; 	
27 	: 	7.460000; 	28 	: 	9.220000; 	29 	: 	4.530000; 	30 	: 	5.100000; 	31 	: 	2.250000; 	
32 	: 	7.010000; 	33 	: 	13.060000; 	34 	: 	1.290000; 	35 	: 	1.530000; 	36 	: 	2.120000; 	
37 	: 	1.200000; 	38 	: 	9.840000; 	

Origin 7 
1 	: 	7.210000; 	2 	: 	9.190000; 	3 	: 	5.430000; 	4 	: 	9.450000; 	5 	: 	11.100000; 	
6 	: 	13.360000; 	8 	: 	43.270000; 	9 	: 	3.500000; 	10 	: 	3.770000; 	11 	: 	6.750000; 	
12 	: 	8.740000; 	13 	: 	37.070000; 	14 	: 	9.670000; 	15 	: 	3.580000; 	16 	: 	2.060000; 	
17 	: 	5.410000; 	18 	: 	32.300000; 	19 	: 	8.350000; 	20 	: 	16.890000; 	21 	: 	1.600000; 	
22 	: 	2.370000; 	23 	: 	3.900000; 	24 	: 	7.610000; 	25 	: 	8.540000; 	26 	: 	27.320000; 	
27 	: 	20.420000; 	28 	: 	21.740000; 	29 	: 	9.360000; 	30 	: 	5.560000; 	31 	: 	3.520000; 	
32 	: 	17.720000; 	33 	: 	22.540000; 	34 	: 	2.530000; 	35 	: 	2.730000; 	36 	: 	4.290000; 	
37 	: 	1.680000; 	38 	: 	17.570000; 	

Origin 8 
1 	: 	9.110000; 	2 	: 	11.860000; 	3 	: 	7.800000; 	4 	: 	11.090000; 	5 	: 	15.520000; 	
6 	: 	24.640000; 	7 	: 	56.470000; 	9 	: 	6.260000; 	10 	: 	3.890000; 	11 	: 	10.090000; 	
12 	: 	17.450000; 	13 	: 	47.980000; 	14 	: 	20.180000; 	15 	: 	3.940000; 	16 	: 	3.090000; 	
17 	: 	7.700000; 	18 	: 	54.720000; 	19 	: 	10.720000; 	20 	: 	17.080000; 	21 	: 	2.770000; 	
22 	: 	2.270000; 	23 	: 	8.530000; 	24 	: 	11.180000; 	25 	: 	16.740000; 	26 	: 	43.500000; 	
27 	: 	39.880000; 	28 	: 	35.870000; 	29 	: 	11.000000; 	30 	: 	10.300000; 	31 	: 	6.590000; 	
32 	: 	26.630000; 	33 	: 	56.120000; 	34 	: 	3.770000; 	35 	: 	0.290000; 	36 	: 	5.300000; 	
37 	: 	2.370000; 	38 	: 	22.540000; 	

Origin 9 
1 	: 	41.790000; 	2 	: 	43.130000; 	3 	: 	36.290000; 	4 	: 	40.870000; 	5 	: 	44.240000; 	
6 	: 	2.690000; 	7 	: 	4.680000; 	8 	: 	4.220000; 	10 	: 	12.440000; 	11 	: 	29.080000; 	
12 	: 	1.880000; 	13 	: 	6.990000; 	14 	: 	48.860000; 	15 	: 	12.060000; 	16 	: 	7.690000; 	
17 	: 	17.010000; 	18 	: 	5.610000; 	19 	: 	1.200000; 	20 	: 	2.500000; 	21 	: 	6.650000; 	
22 	: 	7.010000; 	23 	: 	17.520000; 	24 	: 	30.850000; 	25 	: 	1.650000; 	26 	: 	5.060000; 	
27 	: 	4.130000; 	28 	: 	4.490000; 	29 	: 	9.510000; 	30 	: 	6.400000; 	31 	: 	13.370000; 	
32 	: 	3.360000; 	33 	: 	5.260000; 	34 	: 	8.920000; 	35 	: 	2.030000; 	36 	: 	3.940000; 	
37 	: 	10.170000; 	38 	: 	2.120000; 	

Origin 10 
1 	: 	31.960000; 	2 	: 	29.300000; 	3 	: 	36.190000; 	4 	: 	32.140000; 	5 	: 	34.760000; 	
6 	: 	2.440000; 	7 	: 	4.380000; 	8 	: 	2.860000; 	9 	: 	13.020000; 	11 	: 	20.380000; 	
12 	: 	1.760000; 	13 	: 	5.570000; 	14 	: 	42.330000; 	15 	: 	10.690000; 	16 	: 	5.710000; 	
17 	: 	13.500000; 	18 	: 	5.060000; 	19 	: 	1.030000; 	20 	: 	2.090000; 	21 	: 	3.910000; 	
22 	: 	6.330000; 	23 	: 	13.900000; 	24 	: 	19.460000; 	25 	: 	1.490000; 	26 	: 	4.270000; 	
27 	: 	3.640000; 	28 	: 	3.380000; 	29 	: 	7.030000; 	30 	: 	5.880000; 	31 	: 	12.920000; 	
32 	: 	2.890000; 	33 	: 	4.880000; 	34 	: 	5.840000; 	35 	: 	1.360000; 	36 	: 	2.700000; 	
37 	: 	7.770000; 	38 	: 	1.900000; 	

Origin 11 
1 	: 	73.610000; 	2 	: 	64.930000; 	3 	: 	76.130000; 	4 	: 	83.210000; 	5 	: 	87.990000; 	
6 	: 	4.840000; 	7 	: 	9.100000; 	8 	: 	6.850000; 	9 	: 	29.590000; 	10 	: 	19.780000; 	
12 	: 	4.320000; 	13 	: 	13.410000; 	14 	: 	78.440000; 	15 	: 	22.190000; 	16 	: 	13.730000; 	
17 	: 	33.690000; 	18 	: 	11.000000; 	19 	: 	2.050000; 	20 	: 	4.310000; 	21 	: 	10.220000; 	
22 	: 	16.010000; 	23 	: 	27.170000; 	24 	: 	50.610000; 	25 	: 	3.510000; 	26 	: 	8.650000; 	
27 	: 	7.400000; 	28 	: 	7.920000; 	29 	: 	15.990000; 	30 	: 	10.080000; 	31 	: 	25.770000; 	
32 	: 	6.120000; 	33 	: 	9.990000; 	34 	: 	16.430000; 	35 	: 	3.050000; 	36 	: 	6.050000; 	
37 	: 	13.150000; 	38 	: 	3.730000; 	

Origin 12 
1 	: 	2.890000; 	2 	: 	3.240000; 	3 	: 	2.060000; 	4 	: 	2.790000; 	5 	: 	3.180000; 	
6 	: 	4.330000; 	7 	: 	8.670000; 	8 	: 	13.370000; 	9 	: 	1.370000; 	10 	: 	1.490000; 	
11 	: 	3.150000; 	13 	: 	10.480000; 	14 	: 	3.200000; 	15 	: 	1.140000; 	16 	: 	0.640000; 	
17 	: 	1.300000; 	18 	: 	10.550000; 	19 	: 	2.400000; 	20 	: 	5.060000; 	21 	: 	0.590000; 	
22 	: 	0.730000; 	23 	: 	1.340000; 	24 	: 	2.430000; 	25 	: 	2.440000; 	26 	: 	8.930000; 	
27 	: 	6.630000; 	28 	: 	6.890000; 	29 	: 	2.780000; 	30 	: 	2.310000; 	31 	: 	0.940000; 	
32 	: 	6.300000; 	33 	: 	8.510000; 	34 	: 	0.790000; 	35 	: 	0.970000; 	36 	: 	1.910000; 	
37 	: 	0.720000; 	38 	: 	4.370000; 	

Origin 13 
1 	: 	11.970000; 	2 	: 	13.570000; 	3 	: 	13.040000; 	4 	: 	12.540000; 	5 	: 	14.560000; 	
6 	: 	22.480000; 	7 	: 	48.440000; 	8 	: 	40.290000; 	9 	: 	8.390000; 	10 	: 	5.430000; 	
11 	: 	15.590000; 	12 	: 	13.770000; 	14 	: 	21.160000; 	15 	: 	4.880000; 	16 	: 	2.360000; 	
17 	: 	6.160000; 	18 	: 	51.330000; 	19 	: 	12.090000; 	20 	: 	24.540000; 	21 	: 	2.230000; 	
22 	: 	3.460000; 	23 	: 	6.930000; 	24 	: 	7.430000; 	25 	: 	10.980000; 	26 	: 	31.310000; 	
27 	: 	22.830000; 	28 	: 	23.600000; 	29 	: 	9.140000; 	30 	: 	12.790000; 	31 	: 	6.200000; 	
32 	: 	29.460000; 	33 	: 	49.810000; 	34 	: 	3.060000; 	35 	: 	2.370000; 	36 	: 	5.890000; 	
37 	: 	3.830000; 	38 	: 	24.050000; 	

Origin 14 
1 	: 	92.600000; 	2 	: 	64.140000; 	3 	: 	94.520000; 	4 	: 	105.140000; 	5 	: 	83.380000; 	
6 	: 	5.460000; 	7 	: 	12.490000; 	8 	: 	13.540000; 	9 	: 	45.930000; 	10 	: 	38.280000; 	
11 	: 	72.540000; 	12 	: 	4.220000; 	13 	: 	15.910000; 	15 	: 	20.640000; 	16 	: 	16.060000; 	
17 	: 	41.810000; 	18 	: 	15.740000; 	19 	: 	2.520000; 	20 	: 	5.590000; 	21 	: 	14.230000; 	
22 	: 	24.860000; 	23 	: 	34.990000; 	24 	: 	61.100000; 	25 	: 	4.230000; 	26 	: 	10.230000; 	
27 	: 	8.450000; 	28 	: 	8.130000; 	29 	: 	17.030000; 	30 	: 	9.980000; 	31 	: 	24.410000; 	
32 	: 	7.850000; 	33 	: 	12.300000; 	34 	: 	27.530000; 	35 	: 	5.160000; 	36 	: 	6.420000; 	
37 	: 	20.080000; 	38 	: 	5.500000; 	

Origin 15 
1 	: 	27.610000; 	2 	: 	25.130000; 	3 	: 	25.680000; 	4 	: 	31.120000; 	5 	: 	28.020000; 	
6 	: 	2.170000; 	7 	: 	4.940000; 	8 	: 	2.710000; 	9 	: 	12.930000; 	10 	: 	10.930000; 	
11 	: 	23.410000; 	12 	: 	1.590000; 	13 	: 	4.560000; 	14 	: 	23.410000; 	16 	: 	3.410000; 	
17 	: 	11.870000; 	18 	: 	4.110000; 	19 	: 	1.030000; 	20 	: 	2.070000; 	21 	: 	4.590000; 	
22 	: 	5.900000; 	23 	: 	10.890000; 	24 	: 	15.600000; 	25 	: 	1.550000; 	26 	: 	3.690000; 	
27 	: 	2.580000; 	28 	: 	2.250000; 	29 	: 	6.420000; 	30 	: 	4.190000; 	31 	: 	7.020000; 	
32 	: 	2.240000; 	33 	: 	4.590000; 	34 	: 	7.880000; 	35 	: 	0.990000; 	36 	: 	2.570000; 	
37 	: 	6.280000; 	38 	: 	2.240000; 	

Origin 16 
1 	: 	11.640000; 	2 	: 	13.530000; 	3 	: 	12.870000; 	4 	: 	13.420000; 	5 	: 	15.460000; 	
6 	: 	0.820000; 	7 	: 	2.310000; 	8 	: 	2.230000; 	9 	: 	7.490000; 	10 	: 	5.320000; 	
11 	: 	13.150000; 	12 	: 	0.730000; 	13 	: 	2.270000; 	14 	: 	16.590000; 	15 	: 	3.110000; 	
17 	: 	5.640000; 	18 	: 	1.940000; 	19 	: 	0.540000; 	20 	: 	1.030000; 	21 	: 	2.270000; 	
22 	: 	3.830000; 	23 	: 	6.480000; 	24 	: 	7.740000; 	25 	: 	0.750000; 	26 	: 	1.490000; 	
27 	: 	1.050000; 	28 	: 	1.010000; 	29 	: 	2.720000; 	30 	: 	2.480000; 	31 	: 	4.240000; 	
32 	: 	0.910000; 	33 	: 	1.770000; 	34 	: 	3.870000; 	35 	: 	0.880000; 	36 	: 	1.160000; 	
37 	: 	3.420000; 	38 	: 	1.140000; 	

Origin 17 
1 	: 	29.770000; 	2 	: 	33.630000; 	3 	: 	37.490000; 	4 	: 	37.360000; 	5 	: 	29.350000; 	
6 	: 	2.140000; 	7 	: 	5.510000; 	8 	: 	5.550000; 	9 	: 	16.080000; 	10 	: 	12.160000; 	
11 	: 	31.350000; 	12 	: 	1.340000; 	13 	: 	5.420000; 	14 	: 	41.860000; 	15 	: 	10.550000; 	
16 	: 	5.430000; 	18 	: 	4.080000; 	19 	: 	1.000000; 	20 	: 	2.220000; 	21 	: 	5.620000; 	
22 	: 	8.590000; 	23 	: 	18.800000; 	24 	: 	23.820000; 	25 	: 	1.400000; 	26 	: 	3.790000; 	
27 	: 	3.030000; 	28 	: 	3.270000; 	29 	: 	4.520000; 	30 	: 	4.090000; 	31 	: 	9.410000; 	
32 	: 	3.130000; 	33 	: 	4.350000; 	34 	: 	8.170000; 	35 	: 	1.950000; 	36 	: 	1.770000; 	
37 	: 	8.850000; 	38 	: 	2.430000; 	

Origin 18 
1 	: 	10.540000; 	2 	: 	12.260000; 	3 	: 	9.180000; 	4 	: 	13.130000; 	5 	: 	15.030000; 	
6 	: 	17.390000; 	7 	: 	33.920000; 	8 	: 	42.100000; 	9 	: 	4.640000; 	10 	: 	4.670000; 	
11 	: 	9.000000; 	12 	: 	11.170000; 	13 	: 	41.860000; 	14 	: 	13.840000; 	15 	: 	3.230000; 	
16 	: 	1.880000; 	17 	: 	4.340000; 	19 	: 	8.890000; 	20 	: 	19.020000; 	21 	: 	2.160000; 	
22 	: 	2.690000; 	23 	: 	5.380000; 	24 	: 	9.380000; 	25 	: 	11.120000; 	26 	: 	31.900000; 	
27 	: 	25.400000; 	28 	: 	26.940000; 	29 	: 	10.380000; 	30 	: 	6.070000; 	31 	: 	3.090000; 	
32 	: 	19.920000; 	33 	: 	27.150000; 	34 	: 	3.220000; 	35 	: 	2.380000; 	36 	: 	4.340000; 	
37 	: 	2.400000; 	38 	: 	21.540000; 	

Origin 19 
1 	: 	1.270000; 	2 	: 	1.860000; 	3 	: 	1.170000; 	4 	: 	1.500000; 	5 	: 	2.090000; 	
6 	: 	3.870000; 	7 	: 	10.890000; 	8 	: 	8.960000; 	9 	: 	1.350000; 	10 	: 	0.920000; 	
11 	: 	2.220000; 	12 	: 	3.200000; 	13 	: 	11.510000; 	14 	: 	3.220000; 	15 	: 	1.020000; 	
16 	: 	0.500000; 	17 	: 	1.040000; 	18 	: 	10.650000; 	20 	: 	3.560000; 	21 	: 	0.390000; 	
22 	: 	0.830000; 	23 	: 	1.460000; 	24 	: 	1.900000; 	25 	: 	2.890000; 	26 	: 	7.560000; 	
27 	: 	6.600000; 	28 	: 	6.530000; 	29 	: 	2.450000; 	30 	: 	2.820000; 	31 	: 	1.090000; 	
32 	: 	6.090000; 	33 	: 	10.080000; 	34 	: 	0.670000; 	35 	: 	0.750000; 	36 	: 	1.250000; 	
37 	: 	0.470000; 	38 	: 	5.290000; 	

Origin 20 
1 	: 	3.130000; 	2 	: 	4.120000; 	3 	: 	2.040000; 	4 	: 	3.650000; 	5 	: 	4.720000; 	
6 	: 	5.080000; 	7 	: 	17.310000; 	8 	: 	13.110000; 	9 	: 	2.000000; 	10 	: 	1.860000; 	
11 	: 	3.380000; 	12 	: 	5.260000; 	13 	: 	19.500000; 	14 	: 	4.690000; 	15 	: 	1.580000; 	
16 	: 	0.980000; 	17 	: 	2.270000; 	18 	: 	18.580000; 	19 	: 	2.890000; 	21 	: 	0.830000; 	
22 	: 	1.260000; 	23 	: 	2.050000; 	24 	: 	3.880000; 	25 	: 	4.840000; 	26 	: 	10.790000; 	
27 	: 	9.050000; 	28 	: 	11.270000; 	29 	: 	5.310000; 	30 	: 	3.430000; 	31 	: 	1.560000; 	
32 	: 	7.890000; 	33 	: 	14.200000; 	34 	: 	1.350000; 	35 	: 	1.120000; 	36 	: 	2.570000; 	
37 	: 	0.780000; 	38 	: 	7.990000; 	

Origin 21 
1 	: 	12.330000; 	2 	: 	10.350000; 	3 	: 	14.350000; 	4 	: 	12.930000; 	5 	: 	13.780000; 	
6 	: 	0.760000; 	7 	: 	1.620000; 	8 	: 	2.000000; 	9 	: 	6.220000; 	10 	: 	3.480000; 	
11 	: 	9.390000; 	12 	: 	0.610000; 	13 	: 	1.920000; 	14 	: 	14.050000; 	15 	: 	4.040000; 	
16 	: 	2.150000; 	17 	: 	5.540000; 	18 	: 	2.020000; 	19 	: 	0.370000; 	20 	: 	0.790000; 	
22 	: 	3.500000; 	23 	: 	4.440000; 	24 	: 	6.400000; 	25 	: 	0.440000; 	26 	: 	1.530000; 	
27 	: 	1.070000; 	28 	: 	1.030000; 	29 	: 	2.150000; 	30 	: 	2.080000; 	31 	: 	5.550000; 	
32 	: 	1.100000; 	33 	: 	1.630000; 	34 	: 	2.470000; 	35 	: 	0.900000; 	36 	: 	0.880000; 	
37 	: 	3.300000; 	38 	: 	0.740000; 	

Origin 22 
1 	: 	22.180000; 	2 	: 	23.460000; 	3 	: 	19.710000; 	4 	: 	21.770000; 	5 	: 	25.110000; 	
6 	: 	2.070000; 	7 	: 	3.310000; 	8 	: 	1.590000; 	9 	: 	7.870000; 	10 	: 	6.800000; 	
11 	: 	17.720000; 	12 	: 	1.040000; 	13 	: 	3.500000; 	14 	: 	29.310000; 	15 	: 	6.210000; 	
16 	: 	4.380000; 	17 	: 	10.060000; 	18 	: 	3.550000; 	19 	: 	0.900000; 	20 	: 	1.700000; 	
21 	: 	4.150000; 	23 	: 	10.430000; 	24 	: 	16.430000; 	25 	: 	0.980000; 	26 	: 	3.500000; 	
27 	: 	3.000000; 	28 	: 	2.630000; 	29 	: 	5.320000; 	30 	: 	4.650000; 	31 	: 	7.890000; 	
32 	: 	2.210000; 	33 	: 	3.810000; 	34 	: 	4.650000; 	35 	: 	0.710000; 	36 	: 	2.780000; 	
37 	: 	5.360000; 	38 	: 	1.560000; 	

Origin 23 
1 	: 	40.440000; 	2 	: 	36.180000; 	3 	: 	35.130000; 	4 	: 	42.980000; 	5 	: 	47.730000; 	
6 	: 	2.410000; 	7 	: 	5.030000; 	8 	: 	5.730000; 	9 	: 	16.490000; 	10 	: 	12.660000; 	
11 	: 	25.150000; 	12 	: 	1.800000; 	13 	: 	5.230000; 	14 	: 	34.990000; 	15 	: 	9.610000; 	
16 	: 	6.320000; 	17 	: 	18.940000; 	18 	: 	6.140000; 	19 	: 	1.160000; 	20 	: 	2.450000; 	
21 	: 	4.530000; 	22 	: 	8.880000; 	24 	: 	19.740000; 	25 	: 	1.320000; 	26 	: 	4.430000; 	
27 	: 	3.040000; 	28 	: 	2.730000; 	29 	: 	8.220000; 	30 	: 	5.040000; 	31 	: 	13.230000; 	
32 	: 	3.410000; 	33 	: 	5.070000; 	34 	: 	8.160000; 	35 	: 	2.360000; 	36 	: 	3.280000; 	
37 	: 	9.150000; 	38 	: 	2.350000; 	

Origin 24 
1 	: 	48.310000; 	2 	: 	50.950000; 	3 	: 	55.270000; 	4 	: 	52.030000; 	5 	: 	59.110000; 	
6 	: 	3.630000; 	7 	: 	8.150000; 	8 	: 	8.090000; 	9 	: 	30.190000; 	10 	: 	18.040000; 	
11 	: 	48.730000; 	12 	: 	2.650000; 	13 	: 	6.850000; 	14 	: 	63.420000; 	15 	: 	14.290000; 	
16 	: 	7.700000; 	17 	: 	24.570000; 	18 	: 	9.320000; 	19 	: 	1.930000; 	20 	: 	3.970000; 	
21 	: 	6.700000; 	22 	: 	14.380000; 	23 	: 	20.310000; 	25 	: 	2.060000; 	26 	: 	5.810000; 	
27 	: 	4.000000; 	28 	: 	3.640000; 	29 	: 	9.590000; 	30 	: 	9.900000; 	31 	: 	21.390000; 	
32 	: 	4.700000; 	33 	: 	8.430000; 	34 	: 	11.110000; 	35 	: 	3.300000; 	36 	: 	4.450000; 	
37 	: 	15.010000; 	38 	: 	3.900000; 	

Origin 25 
1 	: 	3.090000; 	2 	: 	3.420000; 	3 	: 	3.550000; 	4 	: 	3.140000; 	5 	: 	3.460000; 	
6 	: 	5.550000; 	7 	: 	11.190000; 	8 	: 	13.970000; 	9 	: 	1.810000; 	10 	: 	1.290000; 	
11 	: 	3.710000; 	12 	: 	3.210000; 	13 	: 	10.330000; 	14 	: 	5.290000; 	15 	: 	1.500000; 	
16 	: 	0.680000; 	17 	: 	1.410000; 	18 	: 	13.280000; 	19 	: 	2.840000; 	20 	: 	5.990000; 	
21 	: 	0.460000; 	22 	: 	0.890000; 	23 	: 	1.650000; 	24 	: 	1.980000; 	26 	: 	10.030000; 	
27 	: 	6.830000; 	28 	: 	6.890000; 	29 	: 	2.640000; 	30 	: 	3.740000; 	31 	: 	1.520000; 	
32 	: 	7.820000; 	33 	: 	11.330000; 	34 	: 	0.670000; 	35 	: 	1.090000; 	36 	: 	1.530000; 	
37 	: 	1.090000; 	38 	: 	5.490000; 	

Origin 26 
1 	: 	6.430000; 	2 	: 	7.660000; 	3 	: 	4.560000; 	4 	: 	7.030000; 	5 	: 	8.360000; 	
6 	: 	8.030000; 	7 	: 	27.510000; 	8 	: 	33.360000; 	9 	: 	3.880000; 	10 	: 	3.730000; 	
11 	: 	6.570000; 	12 	: 	9.130000; 	13 	: 	24.430000; 	14 	: 	8.230000; 	15 	: 	2.740000; 	
16 	: 	1.350000; 	17 	: 	3.780000; 	18 	: 	30.610000; 	19 	: 	5.940000; 	20 	: 	10.540000; 	
21 	: 	1.540000; 	22 	: 	2.540000; 	23 	: 	3.540000; 	24 	: 	5.490000; 	25 	: 	7.960000; 	
27 	: 	10.770000; 	28 	: 	13.240000; 	29 	: 	7.710000; 	30 	: 	5.740000; 	31 	: 	2.600000; 	
32 	: 	12.900000; 	33 	: 	25.090000; 	34 	: 	2.600000; 	35 	: 	1.570000; 	36 	: 	4.580000; 	
37 	: 	1.590000; 	38 	: 	14.550000; 	

Origin 27 
1 	: 	5.440000; 	2 	: 	6.430000; 	3 	: 	6.240000; 	4 	: 	6.090000; 	5 	: 	6.950000; 	
6 	: 	7.650000; 	7 	: 	26.740000; 	8 	: 	33.260000; 	9 	: 	4.520000; 	10 	: 	3.140000; 	
11 	: 	7.840000; 	12 	: 	8.750000; 	13 	: 	21.350000; 	14 	: 	10.510000; 	15 	: 	2.500000; 	
16 	: 	0.960000; 	17 	: 	3.060000; 	18 	: 	30.320000; 	19 	: 	6.480000; 	20 	: 	11.200000; 	
21 	: 	1.110000; 	22 	: 	2.720000; 	23 	: 	3.770000; 	24 	: 	3.820000; 	25 	: 	6.770000; 	
26 	: 	13.670000; 	28 	: 	11.060000; 	29 	: 	5.690000; 	30 	: 	7.270000; 	31 	: 	3.100000; 	
32 	: 	11.520000; 	33 	: 	22.660000; 	34 	: 	1.850000; 	35 	: 	1.800000; 	36 	: 	3.020000; 	
37 	: 	1.910000; 	38 	: 	13.650000; 	

Origin 28 
1 	: 	6.230000; 	2 	: 	7.090000; 	3 	: 	4.870000; 	4 	: 	6.830000; 	5 	: 	7.650000; 	
6 	: 	7.410000; 	7 	: 	21.960000; 	8 	: 	27.520000; 	9 	: 	3.470000; 	10 	: 	2.960000; 	
11 	: 	6.070000; 	12 	: 	7.060000; 	13 	: 	18.490000; 	14 	: 	6.600000; 	15 	: 	1.670000; 	
16 	: 	0.920000; 	17 	: 	3.260000; 	18 	: 	25.910000; 	19 	: 	5.150000; 	20 	: 	11.040000; 	
21 	: 	1.060000; 	22 	: 	1.910000; 	23 	: 	2.190000; 	24 	: 	3.470000; 	25 	: 	5.480000; 	
26 	: 	13.280000; 	27 	: 	8.760000; 	29 	: 	6.920000; 	30 	: 	4.560000; 	31 	: 	2.050000; 	
32 	: 	10.430000; 	33 	: 	20.400000; 	34 	: 	1.720000; 	35 	: 	1.590000; 	36 	: 	3.300000; 	
37 	: 	1.510000; 	38 	: 	10.820000; 	

Origin 29 
1 	: 	9.210000; 	2 	: 	10.840000; 	3 	: 	9.720000; 	4 	: 	9.110000; 	5 	: 	11.150000; 	
6 	: 	4.760000; 	7 	: 	9.640000; 	8 	: 	8.380000; 	9 	: 	8.760000; 	10 	: 	5.810000; 	
11 	: 	14.330000; 	12 	: 	2.880000; 	13 	: 	8.530000; 	14 	: 	17.680000; 	15 	: 	5.270000; 	
16 	: 	2.470000; 	17 	: 	4.690000; 	18 	: 	10.210000; 	19 	: 	2.450000; 	20 	: 	5.340000; 	
21 	: 	2.320000; 	22 	: 	4.080000; 	23 	: 	8.470000; 	24 	: 	9.140000; 	25 	: 	2.670000; 	
26 	: 	7.890000; 	27 	: 	5.790000; 	28 	: 	7.060000; 	30 	: 	40.070000; 	31 	: 	5.230000; 	
32 	: 	6.510000; 	33 	: 	9.010000; 	34 	: 	3.370000; 	35 	: 	12.520000; 	36 	: 	31.050000; 	
37 	: 	3.370000; 	38 	: 	5.090000; 	

Origin 30 
1 	: 	7.510000; 	2 	: 	9.620000; 	3 	: 	4.490000; 	4 	: 	7.020000; 	5 	: 	9.940000; 	
6 	: 	4.050000; 	7 	: 	7.830000; 	8 	: 	6.940000; 	9 	: 	6.000000; 	10 	: 	5.150000; 	
11 	: 	9.120000; 	12 	: 	3.320000; 	13 	: 	9.580000; 	14 	: 	10.820000; 	15 	: 	3.450000; 	
16 	: 	2.350000; 	17 	: 	4.410000; 	18 	: 	7.880000; 	19 	: 	2.200000; 	20 	: 	4.590000; 	
21 	: 	2.280000; 	22 	: 	3.540000; 	23 	: 	5.410000; 	24 	: 	9.900000; 	25 	: 	2.920000; 	
26 	: 	7.940000; 	27 	: 	5.670000; 	28 	: 	6.270000; 	29 	: 	40.560000; 	31 	: 	3.310000; 	
32 	: 	5.320000; 	33 	: 	7.310000; 	34 	: 	3.820000; 	35 	: 	11.310000; 	36 	: 	17.200000; 	
37 	: 	1.980000; 	38 	: 	4.470000; 	

Origin 31 
1 	: 	28.600000; 	2 	: 	28.240000; 	3 	: 	26.400000; 	4 	: 	34.610000; 	5 	: 	27.420000; 	
6 	: 	1.920000; 	7 	: 	4.560000; 	8 	: 	4.430000; 	9 	: 	12.760000; 	10 	: 	11.840000; 	
11 	: 	24.190000; 	12 	: 	1.250000; 	13 	: 	4.760000; 	14 	: 	24.800000; 	15 	: 	6.270000; 	
16 	: 	4.170000; 	17 	: 	9.540000; 	18 	: 	3.550000; 	19 	: 	0.880000; 	20 	: 	1.890000; 	
21 	: 	5.720000; 	22 	: 	6.760000; 	23 	: 	13.440000; 	24 	: 	20.910000; 	25 	: 	1.260000; 	
26 	: 	3.290000; 	27 	: 	2.550000; 	28 	: 	2.570000; 	29 	: 	5.180000; 	30 	: 	3.160000; 	
32 	: 	2.210000; 	33 	: 	3.620000; 	34 	: 	8.200000; 	35 	: 	1.540000; 	36 	: 	2.070000; 	
37 	: 	6.590000; 	38 	: 	2.030000; 	

Origin 32 
1 	: 	5.090000; 	2 	: 	6.080000; 	3 	: 	3.910000; 	4 	: 	5.900000; 	5 	: 	6.940000; 	
6 	: 	5.780000; 	7 	: 	18.290000; 	8 	: 	20.460000; 	9 	: 	2.690000; 	10 	: 	2.590000; 	
11 	: 	4.840000; 	12 	: 	6.550000; 	13 	: 	23.460000; 	14 	: 	6.610000; 	15 	: 	1.700000; 	
16 	: 	0.850000; 	17 	: 	3.220000; 	18 	: 	19.560000; 	19 	: 	4.930000; 	20 	: 	7.940000; 	
21 	: 	1.140000; 	22 	: 	1.650000; 	23 	: 	2.870000; 	24 	: 	4.590000; 	25 	: 	6.330000; 	
26 	: 	13.220000; 	27 	: 	9.350000; 	28 	: 	10.670000; 	29 	: 	6.500000; 	30 	: 	3.970000; 	
31 	: 	1.860000; 	33 	: 	13.670000; 	34 	: 	1.810000; 	35 	: 	1.500000; 	36 	: 	2.900000; 	
37 	: 	1.210000; 	38 	: 	11.940000; 	

Origin 33 
1 	: 	7.710000; 	2 	: 	9.430000; 	3 	: 	9.160000; 	4 	: 	9.580000; 	5 	: 	11.010000; 	
6 	: 	13.340000; 	7 	: 	29.280000; 	8 	: 	46.770000; 	9 	: 	5.680000; 	10 	: 	4.180000; 	
11 	: 	10.460000; 	12 	: 	11.260000; 	13 	: 	46.410000; 	14 	: 	15.220000; 	15 	: 	4.400000; 	
16 	: 	1.590000; 	17 	: 	4.320000; 	18 	: 	32.110000; 	19 	: 	9.780000; 	20 	: 	17.290000; 	
21 	: 	1.670000; 	22 	: 	3.410000; 	23 	: 	6.200000; 	24 	: 	7.890000; 	25 	: 	11.290000; 	
26 	: 	31.560000; 	27 	: 	22.580000; 	28 	: 	25.510000; 	29 	: 	8.750000; 	30 	: 	9.280000; 	
31 	: 	4.330000; 	32 	: 	16.710000; 	34 	: 	2.720000; 	35 	: 	3.510000; 	36 	: 	3.900000; 	
37 	: 	2.660000; 	38 	: 	22.060000; 	

Origin 34 
1 	: 	19.020000; 	2 	: 	20.660000; 	3 	: 	21.370000; 	4 	: 	19.420000; 	5 	: 	21.460000; 	
6 	: 	1.450000; 	7 	: 	2.730000; 	8 	: 	2.730000; 	9 	: 	8.750000; 	10 	: 	5.420000; 	
11 	: 	15.850000; 	12 	: 	0.870000; 	13 	: 	2.840000; 	14 	: 	28.630000; 	15 	: 	7.230000; 	
16 	: 	3.850000; 	17 	: 	8.460000; 	18 	: 	3.210000; 	19 	: 	0.680000; 	20 	: 	1.390000; 	
21 	: 	2.600000; 	22 	: 	4.090000; 	23 	: 	8.410000; 	24 	: 	11.130000; 	25 	: 	0.700000; 	
26 	: 	2.750000; 	27 	: 	1.960000; 	28 	: 	1.820000; 	29 	: 	3.540000; 	30 	: 	3.870000; 	
31 	: 	8.410000; 	32 	: 	1.860000; 	33 	: 	2.920000; 	35 	: 	1.290000; 	36 	: 	1.730000; 	
37 	: 	5.890000; 	38 	: 	1.280000; 	

Origin 35 
1 	: 	5.080000; 	2 	: 	6.010000; 	3 	: 	4.010000; 	4 	: 	5.130000; 	5 	: 	6.960000; 	
6 	: 	2.030000; 	7 	: 	3.720000; 	8 	: 	0.320000; 	9 	: 	3.320000; 	10 	: 	2.180000; 	
11 	: 	4.990000; 	12 	: 	1.320000; 	13 	: 	3.130000; 	14 	: 	8.500000; 	15 	: 	1.600000; 	
16 	: 	1.390000; 	17 	: 	3.140000; 	18 	: 	3.240000; 	19 	: 	0.990000; 	20 	: 	1.520000; 	
21 	: 	1.450000; 	22 	: 	1.140000; 	23 	: 	3.890000; 	24 	: 	5.330000; 	25 	: 	1.440000; 	
26 	: 	2.150000; 	27 	: 	2.390000; 	28 	: 	2.160000; 	29 	: 	16.950000; 	30 	: 	15.460000; 	
31 	: 	2.530000; 	32 	: 	2.040000; 	33 	: 	4.650000; 	34 	: 	2.070000; 	36 	: 	9.020000; 	
37 	: 	1.210000; 	38 	: 	1.950000; 	

Origin 36 
1 	: 	2.870000; 	2 	: 	4.000000; 	3 	: 	2.480000; 	4 	: 	2.690000; 	5 	: 	4.020000; 	
6 	: 	2.260000; 	7 	: 	4.450000; 	8 	: 	4.040000; 	9 	: 	3.700000; 	10 	: 	2.280000; 	
11 	: 	5.530000; 	12 	: 	2.010000; 	13 	: 	5.550000; 	14 	: 	6.760000; 	15 	: 	2.150000; 	
16 	: 	1.060000; 	17 	: 	1.870000; 	18 	: 	4.310000; 	19 	: 	1.250000; 	20 	: 	2.610000; 	
21 	: 	0.960000; 	22 	: 	2.150000; 	23 	: 	3.440000; 	24 	: 	4.330000; 	25 	: 	1.580000; 	
26 	: 	4.730000; 	27 	: 	3.110000; 	28 	: 	3.400000; 	29 	: 	31.340000; 	30 	: 	17.170000; 	
31 	: 	2.120000; 	32 	: 	2.920000; 	33 	: 	4.050000; 	34 	: 	1.670000; 	35 	: 	6.660000; 	
37 	: 	1.160000; 	38 	: 	2.590000; 	

Origin 37 
1 	: 	15.220000; 	2 	: 	15.920000; 	3 	: 	22.310000; 	4 	: 	24.090000; 	5 	: 	24.210000; 	
6 	: 	1.160000; 	7 	: 	2.240000; 	8 	: 	1.610000; 	9 	: 	10.250000; 	10 	: 	7.470000; 	
11 	: 	13.020000; 	12 	: 	1.000000; 	13 	: 	3.230000; 	14 	: 	21.500000; 	15 	: 	5.890000; 	
16 	: 	3.550000; 	17 	: 	9.430000; 	18 	: 	2.890000; 	19 	: 	0.430000; 	20 	: 	0.980000; 	
21 	: 	3.550000; 	22 	: 	4.800000; 	23 	: 	9.770000; 	24 	: 	15.440000; 	25 	: 	1.010000; 	
26 	: 	2.070000; 	27 	: 	1.780000; 	28 	: 	1.960000; 	29 	: 	3.700000; 	30 	: 	2.140000; 	
31 	: 	6.960000; 	32 	: 	1.520000; 	33 	: 	2.500000; 	34 	: 	6.040000; 	35 	: 	0.730000; 	
36 	: 	1.260000; 	38 	: 	0.820000; 	

Origin 38 
1 	: 	2.510000; 	2 	: 	3.840000; 	3 	: 	1.660000; 	4 	: 	3.400000; 	5 	: 	4.700000; 	
6 	: 	7.920000; 	7 	: 	17.720000; 	8 	: 	17.300000; 	9 	: 	1.640000; 	10 	: 	1.660000; 	
11 	: 	2.860000; 	12 	: 	4.470000; 	13 	: 	18.840000; 	14 	: 	4.480000; 	15 	: 	1.660000; 	
16 	: 	1.040000; 	17 	: 	2.430000; 	18 	: 	20.710000; 	19 	: 	4.170000; 	20 	: 	7.810000; 	
21 	: 	0.750000; 	22 	: 	1.130000; 	23 	: 	1.900000; 	24 	: 	3.710000; 	25 	: 	4.370000; 	
26 	: 	14.570000; 	27 	: 	10.810000; 	28 	: 	10.820000; 	29 	: 	4.990000; 	30 	: 	3.240000; 	
31 	: 	1.640000; 	32 	: 	11.670000; 	33 	: 	17.630000; 	34 	: 	1.210000; 	35 	: 	1.420000; 	
36 	: 	2.530000; 	37 	: 	0.630000; 	
