<NUMBER OF ZONES> 38
<NUMBER OF NODES> 352
<FIRST THRU NODE> 39
<NUMBER OF LINKS> 749
<END OF METADATA> 



~ 	Init node 	Term node 	Capacity 	Length 	Free Flow Time 	B 	Power 	Speed limit 	Toll 	Type 	; 
 	1   	183 	999999.0000000000 	  0.0000000000 	 0.0000000000 	0.0000000000 	4.000000 	0.000000 	0.000000 	0 	; 
 	1   	294 	999999.0000000000 	  0.0000000000 	 0.0000000000 	0.0000000000 	4.000000 	0.000000 	0.000000 	0 	; 
 	1   	296 	999999.0000000000 	  0.0000000000 	 0.0000000000 	0.0000000000 	4.000000 	0.000000 	0.000000 	0 	; 
 	1   	297 	999999.0000000000 	  0.0000000000 	 0.0000000000 	0.0000000000 	4.000000 	0.000000 	0.000000 	0 	; 
 	2   	187 	999999.0000000000 	  0.0000000000 	 0.0000000000 	0.0000000000 	4.000000 	0.000000 	0.000000 	0 	; 
 	2   	242 	999999.0000000000 	  0.0000000000 	 0.0000000000 	0.0000000000 	4.000000 	0.000000 	0.000000 	0 	; 
 	2   	243 	999999.0000000000 	  0.0000000000 	 0.0000000000 	0.0000000000 	4.000000 	0.000000 	0.000000 	0 	; 
 	2   	245 	999999.0000000000 	  0.0000000000 	 0.0000000000 	0.0000000000 	4.000000 	0.000000 	0.000000 	0 	; 
 	3   	200 	999999.0000000000 	  0.0000000000 	 0.0000000000 	0.0000000000 	4.000000 	0.000000 	0.000000 	0 	; 
 	3   	235 	999999.0000000000 	  0.0000000000 	 0.0000000000 	0.0000000000 	4.000000 	0.000000 	0.000000 	0 	; 
 	3   	318 	999999.0000000000 	  0.0000000000 	 0.0000000000 	0.0000000000 	4.000000 	0.000000 	0.000000 	0 	; 
 	3   	320 	999999.0000000000 	  0.0000000000 	 0.0000000000 	0.0000000000 	4.000000 	0.000000 	0.000000 	0 	; 
 	4   	67  	999999.0000000000 	  0.0000000000 	 0.0000000000 	0.0000000000 	4.000000 	0.000000 	0.000000 	0 	; 
 	4   	153 	999999.0000000000 	  0.0000000000 	 0.0000000000 	0.0000000000 	4.000000 	0.000000 	0.000000 	0 	; 
 	4   	156 	999999.0000000000 	  0.0000000000 	 0.0000000000 	0.0000000000 	4.000000 	0.000000 	0.000000 	0 	; 
 	4   	304 	999999.0000000000 	  0.0000000000 	 0.0000000000 	0.0000000000 	4.000000 	0.000000 	0.000000 	0 	; 
 	5   	169 	999999.0000000000 	  0.0000000000 	 0.0000000000 	0.0000000000 	4.000000 	0.000000 	0.000000 	0 	; 
 	5   	170 	999999.0000000000 	  0.0000000000 	 0.0000000000 	0.0000000000 	4.000000 	0.000000 	0.000000 	0 	; 
 	5   	181 	999999.0000000000 	  0.0000000000 	 0.0000000000 	0.0000000000 	4.000000 	0.000000 	0.000000 	0 	; 
 	5   	184 	999999.0000000000 	  0.0000000000 	 0.0000000000 	0.0000000000 	4.000000 	0.000000 	0.000000 	0 	; 
 	6   	173 	999999.0000000000 	  0.0000000000 	 0.0000000000 	0.0000000000 	4.000000 	0.000000 	0.000000 	0 	; 
 	6   	177 	999999.0000000000 	  0.0000000000 	 0.0000000000 	0.0000000000 	4.000000 	0.000000 	0.000000 	0 	; 
 	6   	331 	999999.0000000000 	  0.0000000000 	 0.0000000000 	0.0000000000 	4.000000 	0.000000 	0.000000 	0 	; 
 	6   	333 	999999.0000000000 	  0.0000000000 	 0.0000000000 	0.0000000000 	4.000000 	0.000000 	0.000000 	0 	; 
 	7   	278 	999999.0000000000 	  0.0000000000 	 0.0000000000 	0.0000000000 	4.000000 	0.000000 	0.000000 	0 	; 
 	7   	280 	999999.0000000000 	  0.0000000000 	 0.0000000000 	0.0000000000 	4.000000 	0.000000 	0.000000 	0 	; 
 	7   	281 	999999.0000000000 	  0.0000000000 	 0.0000000000 	0.0000000000 	4.000000 	0.000000 	0.000000 	0 	; 
 	7   	340 	999999.0000000000 	  0.0000000000 	 0.0000000000 	0.0000000000 	4.000000 	0.000000 	0.000000 	0 	; 
 	8   	145 	999999.0000000000 	  0.0000000000 	 0.0000000000 	0.0000000000 	4.000000 	0.000000 	0.000000 	0 	; 
 	8   	325 	999999.0000000000 	  0.0000000000 	 0.0000000000 	0.0000000000 	4.000000 	0.000000 	0.000000 	0 	; 
 	8   	327 	999999.0000000000 	  0.0000000000 	 0.0000000000 	0.0000000000 	4.000000 	0.000000 	0.000000 	0 	; 
 	8   	328 	999999.0000000000 	  0.0000000000 	 0.0000000000 	0.0000000000 	4.000000 	0.000000 	0.000000 	0 	; 
 	9   	237 	999999.0000000000 	  0.0000000000 	 0.0000000000 	0.0000000000 	4.000000 	0.000000 	0.000000 	0 	; 
 	9   	288 	999999.0000000000 	  0.0000000000 	 0.0000000000 	0.0000000000 	4.000000 	0.000000 	0.000000 	0 	; 
 	9   	289 	999999.0000000000 	  0.0000000000 	 0.0000000000 	0.0000000000 	4.000000 	0.000000 	0.000000 	0 	; 
 	9   	290 	999999.0000000000 	  0.0000000000 	 0.0000000000 	0.0000000000 	4.000000 	0.000000 	0.000000 	0 	; 
 	10  	295 	999999.0000000000 	  0.0000000000 	 0.0000000000 	0.0000000000 	4.000000 	0.000000 	0.000000 	0 	; 
 	10  	298 	999999.0000000000 	  0.0000000000 	 0.0000000000 	0.0000000000 	4.000000 	0.000000 	0.000000 	0 	; 
 	10  	299 	999999.0000000000 	  0.0000000000 	 0.0000000000 	0.0000000000 	4.000000 	0.000000 	0.000000 	0 	; 
 	10  	301 	999999.0000000000 	  0.0000000000 	 0.0000000000 	0.0000000000 	4.000000 	0.000000 	0.000000 	0 	; 
 	11  	236 	999999.0000000000 	  0.0000000000 	 0.0000000000 	0.0000000000 	4.000000 	0.000000 	0.000000 	0 	; 
 	11  	295 	999999.0000000000 	  0.0000000000 	 0.0000000000 	0.0000000000 	4.000000 	0.000000 	0.000000 	0 	; 
 	11  	300 	999999.0000000000 	  0.0000000000 	 0.0000000000 	0.0000000000 	4.000000 	0.000000 	0.000000 	0 	; 
 	11  	310 	999999.0000000000 	  0.0000000000 	 0.0000000000 	0.0000000000 	4.000000 	0.000000 	0.000000 	0 	; 
 	12  	71  	999999.0000000000 	  0.0000000000 	 0.0000000000 	0.0000000000 	4.000000 	0.000000 	0.000000 	0 	; 
 	12  	93  	999999.0000000000 	  0.0000000000 	 0.0000000000 	0.0000000000 	4.000000 	0.000000 	0.000000 	0 	; 
 	12  	96  	999999.0000000000 	  0.0000000000 	 0.0000000000 	0.0000000000 	4.000000 	0.000000 	0.000000 	0 	; 
 	12  	135 	999999.0000000000 	  0.0000000000 	 0.0000000000 	0.0000000000 	4.000000 	0.000000 	0.000000 	0 	; 
 	13  	73  	999999.0000000000 	  0.0000000000 	 0.0000000000 	0.0000000000 	4.000000 	0.000000 	0.000000 	0 	; 
 	13  	75  	999999.0000000000 	  0.0000000000 	 0.0000000000 	0.0000000000 	4.000000 	0.000000 	0.000000 	0 	; 
 	13  	77  	999999.0000000000 	  0.0000000000 	 0.0000000000 	0.0000000000 	4.000000 	0.000000 	0.000000 	0 	; 
 	13  	78  	999999.0000000000 	  0.0000000000 	 0.0000000000 	0.0000000000 	4.000000 	0.000000 	0.000000 	0 	; 
 	14  	122 	999999.0000000000 	  0.0000000000 	 0.0000000000 	0.0000000000 	4.000000 	0.000000 	0.000000 	0 	; 
 	14  	123 	999999.0000000000 	  0.0000000000 	 0.0000000000 	0.0000000000 	4.000000 	0.000000 	0.000000 	0 	; 
 	14  	186 	999999.0000000000 	  0.0000000000 	 0.0000000000 	0.0000000000 	4.000000 	0.000000 	0.000000 	0 	; 
 	14  	187 	999999.0000000000 	  0.0000000000 	 0.0000000000 	0.0000000000 	4.000000 	0.000000 	0.000000 	0 	; 
 	15  	122 	999999.0000000000 	  0.0000000000 	 0.0000000000 	0.0000000000 	4.000000 	0.000000 	0.000000 	0 	; 
 	15  	123 	999999.0000000000 	  0.0000000000 	 0.0000000000 	0.0000000000 	4.000000 	0.000000 	0.000000 	0 	; 
 	15  	124 	999999.0000000000 	  0.0000000000 	 0.0000000000 	0.0000000000 	4.000000 	0.000000 	0.000000 	0 	; 
 	15  	125 	999999.0000000000 	  0.0000000000 	 0.0000000000 	0.0000000000 	4.000000 	0.000000 	0.000000 	0 	; 
 	16  	100 	999999.0000000000 	  0.0000000000 	 0.0000000000 	0.0000000000 	4.000000 	0.000000 	0.000000 	0 	; 
 	16  	102 	999999.0000000000 	  0.0000000000 	 0.0000000000 	0.0000000000 	4.000000 	0.000000 	0.000000 	0 	; 
 	16  	104 	999999.0000000000 	  0.0000000000 	 0.0000000000 	0.0000000000 	4.000000 	0.000000 	0.000000 	0 	; 
 	16  	106 	999999.0000000000 	  0.0000000000 	 0.0000000000 	0.0000000000 	4.000000 	0.000000 	0.000000 	0 	; 
 	17  	219 	999999.0000000000 	  0.0000000000 	 0.0000000000 	0.0000000000 	4.000000 	0.000000 	0.000000 	0 	; 
 	17  	220 	999999.0000000000 	  0.0000000000 	 0.0000000000 	0.0000000000 	4.000000 	0.000000 	0.000000 	0 	; 
 	17  	224 	999999.0000000000 	  0.0000000000 	 0.0000000000 	0.0000000000 	4.000000 	0.000000 	0.000000 	0 	; 
 	17  	225 	999999.0000000000 	  0.0000000000 	 0.0000000000 	0.0000000000 	4.000000 	0.000000 	0.000000 	0 	; 
 	18  	49  	999999.0000000000 	  0.0000000000 	 0.0000000000 	0.0000000000 	4.000000 	0.000000 	0.000000 	0 	; 
 	18  	50  	999999.0000000000 	  0.0000000000 	 0.0000000000 	0.0000000000 	4.000000 	0.000000 	0.000000 	0 	; 
 	18  	57  	999999.0000000000 	  0.0000000000 	 0.0000000000 	0.0000000000 	4.000000 	0.000000 	0.000000 	0 	; 
 	18  	230 	999999.0000000000 	  0.0000000000 	 0.0000000000 	0.0000000000 	4.000000 	0.000000 	0.000000 	0 	; 
 	19  	143 	999999.0000000000 	  0.0000000000 	 0.0000000000 	0.0000000000 	4.000000 	0.000000 	0.000000 	0 	; 
 	19  	144 	999999.0000000000 	  0.0000000000 	 0.0000000000 	0.0000000000 	4.000000 	0.000000 	0.000000 	0 	; 
 	19  	146 	999999.0000000000 	  0.0000000000 	 0.0000000000 	0.0000000000 	4.000000 	0.000000 	0.000000 	0 	; 
 	19  	350 	999999.0000000000 	  0.0000000000 	 0.0000000000 	0.0000000000 	4.000000 	0.000000 	0.000000 	0 	; 
 	20  	52  	999999.0000000000 	  0.0000000000 	 0.0000000000 	0.0000000000 	4.000000 	0.000000 	0.000000 	0 	; 
 	20  	53  	999999.0000000000 	  0.0000000000 	 0.0000000000 	0.0000000000 	4.000000 	0.000000 	0.000000 	0 	; 
 	20  	144 	999999.0000000000 	  0.0000000000 	 0.0000000000 	0.0000000000 	4.000000 	0.000000 	0.000000 	0 	; 
 	20  	152 	999999.0000000000 	  0.0000000000 	 0.0000000000 	0.0000000000 	4.000000 	0.000000 	0.000000 	0 	; 
 	21  	131 	999999.0000000000 	  0.0000000000 	 0.0000000000 	0.0000000000 	4.000000 	0.000000 	0.000000 	0 	; 
 	21  	136 	999999.0000000000 	  0.0000000000 	 0.0000000000 	0.0000000000 	4.000000 	0.000000 	0.000000 	0 	; 
 	21  	238 	999999.0000000000 	  0.0000000000 	 0.0000000000 	0.0000000000 	4.000000 	0.000000 	0.000000 	0 	; 
 	21  	284 	999999.0000000000 	  0.0000000000 	 0.0000000000 	0.0000000000 	4.000000 	0.000000 	0.000000 	0 	; 
 	22  	130 	999999.0000000000 	  0.0000000000 	 0.0000000000 	0.0000000000 	4.000000 	0.000000 	0.000000 	0 	; 
 	22  	132 	999999.0000000000 	  0.0000000000 	 0.0000000000 	0.0000000000 	4.000000 	0.000000 	0.000000 	0 	; 
 	22  	134 	999999.0000000000 	  0.0000000000 	 0.0000000000 	0.0000000000 	4.000000 	0.000000 	0.000000 	0 	; 
 	22  	139 	999999.0000000000 	  0.0000000000 	 0.0000000000 	0.0000000000 	4.000000 	0.000000 	0.000000 	0 	; 
 	23  	131 	999999.0000000000 	  0.0000000000 	 0.0000000000 	0.0000000000 	4.000000 	0.000000 	0.000000 	0 	; 
 	23  	136 	999999.0000000000 	  0.0000000000 	 0.0000000000 	0.0000000000 	4.000000 	0.000000 	0.000000 	0 	; 
 	23  	137 	999999.0000000000 	  0.0000000000 	 0.0000000000 	0.0000000000 	4.000000 	0.000000 	0.000000 	0 	; 
 	23  	284 	999999.0000000000 	  0.0000000000 	 0.0000000000 	0.0000000000 	4.000000 	0.000000 	0.000000 	0 	; 
 	24  	97  	999999.0000000000 	  0.0000000000 	 0.0000000000 	0.0000000000 	4.000000 	0.000000 	0.000000 	0 	; 
 	24  	99  	999999.0000000000 	  0.0000000000 	 0.0000000000 	0.0000000000 	4.000000 	0.000000 	0.000000 	0 	; 
 	24  	131 	999999.0000000000 	  0.0000000000 	 0.0000000000 	0.0000000000 	4.000000 	0.000000 	0.000000 	0 	; 
 	24  	133 	999999.0000000000 	  0.0000000000 	 0.0000000000 	0.0000000000 	4.000000 	0.000000 	0.000000 	0 	; 
 	25  	135 	999999.0000000000 	  0.0000000000 	 0.0000000000 	0.0000000000 	4.000000 	0.000000 	0.000000 	0 	; 
 	25  	139 	999999.0000000000 	  0.0000000000 	 0.0000000000 	0.0000000000 	4.000000 	0.000000 	0.000000 	0 	; 
 	25  	140 	999999.0000000000 	  0.0000000000 	 0.0000000000 	0.0000000000 	4.000000 	0.000000 	0.000000 	0 	; 
 	25  	166 	999999.0000000000 	  0.0000000000 	 0.0000000000 	0.0000000000 	4.000000 	0.000000 	0.000000 	0 	; 
 	26  	249 	999999.0000000000 	  0.0000000000 	 0.0000000000 	0.0000000000 	4.000000 	0.000000 	0.000000 	0 	; 
 	26  	251 	999999.0000000000 	  0.0000000000 	 0.0000000000 	0.0000000000 	4.000000 	0.000000 	0.000000 	0 	; 
 	26  	254 	999999.0000000000 	  0.0000000000 	 0.0000000000 	0.0000000000 	4.000000 	0.000000 	0.000000 	0 	; 
 	26  	283 	999999.0000000000 	  0.0000000000 	 0.0000000000 	0.0000000000 	4.000000 	0.000000 	0.000000 	0 	; 
 	27  	68  	999999.0000000000 	  0.0000000000 	 0.0000000000 	0.0000000000 	4.000000 	0.000000 	0.000000 	0 	; 
 	27  	85  	999999.0000000000 	  0.0000000000 	 0.0000000000 	0.0000000000 	4.000000 	0.000000 	0.000000 	0 	; 
 	27  	251 	999999.0000000000 	  0.0000000000 	 0.0000000000 	0.0000000000 	4.000000 	0.000000 	0.000000 	0 	; 
 	27  	255 	999999.0000000000 	  0.0000000000 	 0.0000000000 	0.0000000000 	4.000000 	0.000000 	0.000000 	0 	; 
 	28  	68  	999999.0000000000 	  0.0000000000 	 0.0000000000 	0.0000000000 	4.000000 	0.000000 	0.000000 	0 	; 
 	28  	69  	999999.0000000000 	  0.0000000000 	 0.0000000000 	0.0000000000 	4.000000 	0.000000 	0.000000 	0 	; 
 	28  	70  	999999.0000000000 	  0.0000000000 	 0.0000000000 	0.0000000000 	4.000000 	0.000000 	0.000000 	0 	; 
 	28  	107 	999999.0000000000 	  0.0000000000 	 0.0000000000 	0.0000000000 	4.000000 	0.000000 	0.000000 	0 	; 
 	29  	252 	999999.0000000000 	  0.0000000000 	 0.0000000000 	0.0000000000 	4.000000 	0.000000 	0.000000 	0 	; 
 	29  	264 	999999.0000000000 	  0.0000000000 	 0.0000000000 	0.0000000000 	4.000000 	0.000000 	0.000000 	0 	; 
 	29  	265 	999999.0000000000 	  0.0000000000 	 0.0000000000 	0.0000000000 	4.000000 	0.000000 	0.000000 	0 	; 
 	29  	266 	999999.0000000000 	  0.0000000000 	 0.0000000000 	0.0000000000 	4.000000 	0.000000 	0.000000 	0 	; 
 	30  	257 	999999.0000000000 	  0.0000000000 	 0.0000000000 	0.0000000000 	4.000000 	0.000000 	0.000000 	0 	; 
 	30  	258 	999999.0000000000 	  0.0000000000 	 0.0000000000 	0.0000000000 	4.000000 	0.000000 	0.000000 	0 	; 
 	30  	260 	999999.0000000000 	  0.0000000000 	 0.0000000000 	0.0000000000 	4.000000 	0.000000 	0.000000 	0 	; 
 	30  	341 	999999.0000000000 	  0.0000000000 	 0.0000000000 	0.0000000000 	4.000000 	0.000000 	0.000000 	0 	; 
 	31  	110 	999999.0000000000 	  0.0000000000 	 0.0000000000 	0.0000000000 	4.000000 	0.000000 	0.000000 	0 	; 
 	31  	111 	999999.0000000000 	  0.0000000000 	 0.0000000000 	0.0000000000 	4.000000 	0.000000 	0.000000 	0 	; 
 	31  	119 	999999.0000000000 	  0.0000000000 	 0.0000000000 	0.0000000000 	4.000000 	0.000000 	0.000000 	0 	; 
 	31  	141 	999999.0000000000 	  0.0000000000 	 0.0000000000 	0.0000000000 	4.000000 	0.000000 	0.000000 	0 	; 
 	32  	100 	999999.0000000000 	  0.0000000000 	 0.0000000000 	0.0000000000 	4.000000 	0.000000 	0.000000 	0 	; 
 	32  	157 	999999.0000000000 	  0.0000000000 	 0.0000000000 	0.0000000000 	4.000000 	0.000000 	0.000000 	0 	; 
 	32  	158 	999999.0000000000 	  0.0000000000 	 0.0000000000 	0.0000000000 	4.000000 	0.000000 	0.000000 	0 	; 
 	32  	159 	999999.0000000000 	  0.0000000000 	 0.0000000000 	0.0000000000 	4.000000 	0.000000 	0.000000 	0 	; 
 	33  	39  	999999.0000000000 	  0.0000000000 	 0.0000000000 	0.0000000000 	4.000000 	0.000000 	0.000000 	0 	; 
 	33  	174 	999999.0000000000 	  0.0000000000 	 0.0000000000 	0.0000000000 	4.000000 	0.000000 	0.000000 	0 	; 
 	33  	178 	999999.0000000000 	  0.0000000000 	 0.0000000000 	0.0000000000 	4.000000 	0.000000 	0.000000 	0 	; 
 	33  	273 	999999.0000000000 	  0.0000000000 	 0.0000000000 	0.0000000000 	4.000000 	0.000000 	0.000000 	0 	; 
 	34  	139 	999999.0000000000 	  0.0000000000 	 0.0000000000 	0.0000000000 	4.000000 	0.000000 	0.000000 	0 	; 
 	34  	140 	999999.0000000000 	  0.0000000000 	 0.0000000000 	0.0000000000 	4.000000 	0.000000 	0.000000 	0 	; 
 	34  	160 	999999.0000000000 	  0.0000000000 	 0.0000000000 	0.0000000000 	4.000000 	0.000000 	0.000000 	0 	; 
 	34  	166 	999999.0000000000 	  0.0000000000 	 0.0000000000 	0.0000000000 	4.000000 	0.000000 	0.000000 	0 	; 
 	35  	268 	999999.0000000000 	  0.0000000000 	 0.0000000000 	0.0000000000 	4.000000 	0.000000 	0.000000 	0 	; 
 	35  	282 	999999.0000000000 	  0.0000000000 	 0.0000000000 	0.0000000000 	4.000000 	0.000000 	0.000000 	0 	; 
 	35  	335 	999999.0000000000 	  0.0000000000 	 0.0000000000 	0.0000000000 	4.000000 	0.000000 	0.000000 	0 	; 
 	35  	336 	999999.0000000000 	  0.0000000000 	 0.0000000000 	0.0000000000 	4.000000 	0.000000 	0.000000 	0 	; 
 	36  	257 	999999.0000000000 	  0.0000000000 	 0.0000000000 	0.0000000000 	4.000000 	0.000000 	0.000000 	0 	; 
 	36  	258 	999999.0000000000 	  0.0000000000 	 0.0000000000 	0.0000000000 	4.000000 	0.000000 	0.000000 	0 	; 
 	36  	260 	999999.0000000000 	  0.0000000000 	 0.0000000000 	0.0000000000 	4.000000 	0.000000 	0.000000 	0 	; 
 	36  	341 	999999.0000000000 	  0.0000000000 	 0.0000000000 	0.0000000000 	4.000000 	0.000000 	0.000000 	0 	; 
 	37  	161 	999999.0000000000 	  0.0000000000 	 0.0000000000 	0.0000000000 	4.000000 	0.000000 	0.000000 	0 	; 
 	37  	162 	999999.0000000000 	  0.0000000000 	 0.0000000000 	0.0000000000 	4.000000 	0.000000 	0.000000 	0 	; 
 	37  	291 	999999.0000000000 	  0.0000000000 	 0.0000000000 	0.0000000000 	4.000000 	0.000000 	0.000000 	0 	; 
 	37  	292 	999999.0000000000 	  0.0000000000 	 0.0000000000 	0.0000000000 	4.000000 	0.000000 	0.000000 	0 	; 
 	38  	314 	999999.0000000000 	  0.0000000000 	 0.0000000000 	0.0000000000 	4.000000 	0.000000 	0.000000 	0 	; 
 	39  	33  	999999.0000000000 	  0.0000000000 	 0.0000000000 	0.0000000000 	4.000000 	0.000000 	0.000000 	0 	; 
 	39  	40  	   900.0000000000 	 32.0000000000 	 0.6666670000 	1.0000000000 	4.000000 	0.000000 	0.000000 	1 	; 
 	39  	48  	  2800.0000000000 	 52.0000000000 	 1.3333330000 	1.0000000000 	4.000000 	0.000000 	0.000000 	1 	; 
 	40  	42  	  2800.0000000000 	 19.0000000000 	 0.6666670000 	1.0000000000 	4.000000 	0.000000 	0.000000 	1 	; 
 	40  	155 	   900.0000000000 	318.0000000000 	 8.3333330000 	1.0000000000 	4.000000 	0.000000 	0.000000 	1 	; 
 	41  	39  	  2800.0000000000 	 20.0000000000 	 1.0000000000 	1.0000000000 	4.000000 	0.000000 	0.000000 	1 	; 
 	41  	178 	   900.0000000000 	102.0000000000 	 2.6666670000 	1.0000000000 	4.000000 	0.000000 	0.000000 	1 	; 
 	42  	41  	   900.0000000000 	 32.0000000000 	 1.0000000000 	1.0000000000 	4.000000 	0.000000 	0.000000 	1 	; 
 	42  	100 	  2800.0000000000 	198.0000000000 	 5.0000000000 	1.0000000000 	4.000000 	0.000000 	0.000000 	1 	; 
 	43  	228 	  2800.0000000000 	222.0000000000 	13.3333330000 	1.0000000000 	4.000000 	0.000000 	0.000000 	1 	; 
 	44  	45  	  2400.0000000000 	 28.0000000000 	 0.6666670000 	1.0000000000 	4.000000 	0.000000 	0.000000 	1 	; 
 	45  	46  	  2800.0000000000 	 44.0000000000 	 1.3333330000 	1.0000000000 	4.000000 	0.000000 	0.000000 	1 	; 
 	45  	208 	  2400.0000000000 	202.0000000000 	11.3333330000 	1.0000000000 	4.000000 	0.000000 	0.000000 	1 	; 
 	46  	51  	  2400.0000000000 	 29.0000000000 	 0.6666670000 	1.0000000000 	4.000000 	0.000000 	0.000000 	1 	; 
 	46  	57  	  2800.0000000000 	131.0000000000 	 3.6666670000 	1.0000000000 	4.000000 	0.000000 	0.000000 	1 	; 
 	47  	82  	  2800.0000000000 	106.0000000000 	 6.0000000000 	1.0000000000 	4.000000 	0.000000 	0.000000 	1 	; 
 	48  	49  	  2800.0000000000 	227.0000000000 	 9.0000000000 	1.0000000000 	4.000000 	0.000000 	0.000000 	1 	; 
 	49  	18  	999999.0000000000 	  0.0000000000 	 0.0000000000 	0.0000000000 	4.000000 	0.000000 	0.000000 	0 	; 
 	49  	50  	   900.0000000000 	 30.0000000000 	 0.6666670000 	1.0000000000 	4.000000 	0.000000 	0.000000 	1 	; 
 	49  	51  	  2800.0000000000 	294.0000000000 	17.3333330000 	1.0000000000 	4.000000 	0.000000 	0.000000 	1 	; 
 	50  	18  	999999.0000000000 	  0.0000000000 	 0.0000000000 	0.0000000000 	4.000000 	0.000000 	0.000000 	0 	; 
 	50  	40  	  2800.0000000000 	280.0000000000 	10.0000000000 	1.0000000000 	4.000000 	0.000000 	0.000000 	1 	; 
 	50  	49  	   900.0000000000 	 30.0000000000 	 0.6666670000 	1.0000000000 	4.000000 	0.000000 	0.000000 	1 	; 
 	51  	44  	  2800.0000000000 	 44.0000000000 	 1.6666670000 	1.0000000000 	4.000000 	0.000000 	0.000000 	1 	; 
 	51  	274 	  2400.0000000000 	118.0000000000 	 4.0000000000 	1.0000000000 	4.000000 	0.000000 	0.000000 	1 	; 
 	52  	20  	999999.0000000000 	  0.0000000000 	 0.0000000000 	0.0000000000 	4.000000 	0.000000 	0.000000 	0 	; 
 	52  	53  	  2800.0000000000 	108.0000000000 	 9.6666670000 	1.0000000000 	4.000000 	0.000000 	0.000000 	1 	; 
 	53  	20  	999999.0000000000 	  0.0000000000 	 0.0000000000 	0.0000000000 	4.000000 	0.000000 	0.000000 	0 	; 
 	53  	54  	   600.0000000000 	 34.0000000000 	 1.0000000000 	1.0000000000 	4.000000 	0.000000 	0.000000 	1 	; 
 	53  	90  	  2800.0000000000 	235.0000000000 	17.3333330000 	1.0000000000 	4.000000 	0.000000 	0.000000 	1 	; 
 	54  	53  	   600.0000000000 	 34.0000000000 	 1.0000000000 	1.0000000000 	4.000000 	0.000000 	0.000000 	1 	; 
 	54  	55  	  2800.0000000000 	235.0000000000 	 6.6666670000 	1.0000000000 	4.000000 	0.000000 	0.000000 	1 	; 
 	55  	59  	  2800.0000000000 	104.0000000000 	10.6666670000 	1.0000000000 	4.000000 	0.000000 	0.000000 	1 	; 
 	56  	45  	  2800.0000000000 	177.0000000000 	16.6666670000 	1.0000000000 	4.000000 	0.000000 	0.000000 	1 	; 
 	57  	18  	999999.0000000000 	  0.0000000000 	 0.0000000000 	0.0000000000 	4.000000 	0.000000 	0.000000 	0 	; 
 	57  	50  	  2800.0000000000 	164.0000000000 	 6.0000000000 	1.0000000000 	4.000000 	0.000000 	0.000000 	1 	; 
 	58  	52  	  2800.0000000000 	227.0000000000 	 9.6666670000 	1.0000000000 	4.000000 	0.000000 	0.000000 	1 	; 
 	58  	59  	  2400.0000000000 	 34.0000000000 	 1.6666670000 	1.0000000000 	4.000000 	0.000000 	0.000000 	1 	; 
 	59  	229 	  2800.0000000000 	 18.0000000000 	 0.6666670000 	1.0000000000 	4.000000 	0.000000 	0.000000 	1 	; 
 	59  	329 	  2400.0000000000 	170.0000000000 	10.0000000000 	1.0000000000 	4.000000 	0.000000 	0.000000 	1 	; 
 	60  	61  	  2800.0000000000 	106.0000000000 	 3.3333330000 	1.0000000000 	4.000000 	0.000000 	0.000000 	1 	; 
 	62  	64  	  2800.0000000000 	115.0000000000 	 2.3333330000 	1.0000000000 	4.000000 	0.000000 	0.000000 	1 	; 
 	63  	62  	  2800.0000000000 	138.0000000000 	 3.0000000000 	1.0000000000 	4.000000 	0.000000 	0.000000 	1 	; 
 	64  	153 	  2800.0000000000 	 39.0000000000 	 0.6666670000 	1.0000000000 	4.000000 	0.000000 	0.000000 	1 	; 
 	64  	199 	  2400.0000000000 	224.0000000000 	 6.0000000000 	1.0000000000 	4.000000 	0.000000 	0.000000 	1 	; 
 	65  	66  	  2800.0000000000 	 58.0000000000 	 1.6666670000 	1.0000000000 	4.000000 	0.000000 	0.000000 	1 	; 
 	66  	60  	  2800.0000000000 	121.0000000000 	 3.0000000000 	1.0000000000 	4.000000 	0.000000 	0.000000 	1 	; 
 	67  	4   	999999.0000000000 	  0.0000000000 	 0.0000000000 	0.0000000000 	4.000000 	0.000000 	0.000000 	0 	; 
 	67  	64  	  2400.0000000000 	 30.0000000000 	 1.0000000000 	1.0000000000 	4.000000 	0.000000 	0.000000 	1 	; 
 	67  	65  	  2800.0000000000 	 75.0000000000 	 2.6666670000 	1.0000000000 	4.000000 	0.000000 	0.000000 	1 	; 
 	68  	27  	999999.0000000000 	  0.0000000000 	 0.0000000000 	0.0000000000 	4.000000 	0.000000 	0.000000 	0 	; 
 	68  	28  	999999.0000000000 	  0.0000000000 	 0.0000000000 	0.0000000000 	4.000000 	0.000000 	0.000000 	0 	; 
 	68  	69  	  2800.0000000000 	187.0000000000 	 7.3333330000 	1.0000000000 	4.000000 	0.000000 	0.000000 	1 	; 
 	69  	28  	999999.0000000000 	  0.0000000000 	 0.0000000000 	0.0000000000 	4.000000 	0.000000 	0.000000 	0 	; 
 	69  	75  	  2800.0000000000 	226.0000000000 	 6.0000000000 	1.0000000000 	4.000000 	0.000000 	0.000000 	1 	; 
 	70  	28  	999999.0000000000 	  0.0000000000 	 0.0000000000 	0.0000000000 	4.000000 	0.000000 	0.000000 	0 	; 
 	70  	74  	  2800.0000000000 	406.0000000000 	21.6666670000 	1.0000000000 	4.000000 	0.000000 	0.000000 	1 	; 
 	71  	12  	999999.0000000000 	  0.0000000000 	 0.0000000000 	0.0000000000 	4.000000 	0.000000 	0.000000 	0 	; 
 	71  	72  	  2400.0000000000 	 30.0000000000 	 1.3333330000 	1.0000000000 	4.000000 	0.000000 	0.000000 	1 	; 
 	71  	78  	  2800.0000000000 	197.0000000000 	 5.3333330000 	1.0000000000 	4.000000 	0.000000 	0.000000 	1 	; 
 	71  	263 	  2400.0000000000 	 13.0000000000 	 0.3333330000 	1.0000000000 	4.000000 	0.000000 	0.000000 	1 	; 
 	72  	71  	  2400.0000000000 	 30.0000000000 	 1.6666670000 	1.0000000000 	4.000000 	0.000000 	0.000000 	1 	; 
 	72  	93  	  2800.0000000000 	265.0000000000 	10.3333330000 	1.0000000000 	4.000000 	0.000000 	0.000000 	1 	; 
 	72  	135 	   600.0000000000 	142.0000000000 	 5.3333330000 	1.0000000000 	4.000000 	0.000000 	0.000000 	1 	; 
 	73  	13  	999999.0000000000 	  0.0000000000 	 0.0000000000 	0.0000000000 	4.000000 	0.000000 	0.000000 	0 	; 
 	73  	70  	  2800.0000000000 	138.0000000000 	 6.3333330000 	1.0000000000 	4.000000 	0.000000 	0.000000 	1 	; 
 	74  	85  	  2800.0000000000 	116.0000000000 	 3.0000000000 	1.0000000000 	4.000000 	0.000000 	0.000000 	1 	; 
 	74  	86  	  2800.0000000000 	 32.0000000000 	 1.6666670000 	1.0000000000 	4.000000 	0.000000 	0.000000 	1 	; 
 	75  	13  	999999.0000000000 	  0.0000000000 	 0.0000000000 	0.0000000000 	4.000000 	0.000000 	0.000000 	0 	; 
 	75  	77  	  2800.0000000000 	225.0000000000 	 6.6666670000 	1.0000000000 	4.000000 	0.000000 	0.000000 	1 	; 
 	76  	92  	  2800.0000000000 	157.0000000000 	 8.3333330000 	1.0000000000 	4.000000 	0.000000 	0.000000 	1 	; 
 	77  	13  	999999.0000000000 	  0.0000000000 	 0.0000000000 	0.0000000000 	4.000000 	0.000000 	0.000000 	0 	; 
 	77  	72  	  2800.0000000000 	204.0000000000 	16.6666670000 	1.0000000000 	4.000000 	0.000000 	0.000000 	1 	; 
 	78  	13  	999999.0000000000 	  0.0000000000 	 0.0000000000 	0.0000000000 	4.000000 	0.000000 	0.000000 	0 	; 
 	78  	73  	  2800.0000000000 	316.0000000000 	 8.3333330000 	1.0000000000 	4.000000 	0.000000 	0.000000 	1 	; 
 	79  	68  	  2800.0000000000 	216.0000000000 	 5.6666670000 	1.0000000000 	4.000000 	0.000000 	0.000000 	1 	; 
 	79  	74  	  2800.0000000000 	 34.0000000000 	 1.0000000000 	1.0000000000 	4.000000 	0.000000 	0.000000 	1 	; 
 	80  	81  	  2800.0000000000 	 21.0000000000 	 0.6666670000 	1.0000000000 	4.000000 	0.000000 	0.000000 	1 	; 
 	81  	86  	  2800.0000000000 	 99.0000000000 	 8.0000000000 	1.0000000000 	4.000000 	0.000000 	0.000000 	1 	; 
 	82  	83  	  2800.0000000000 	 21.0000000000 	 0.6666670000 	1.0000000000 	4.000000 	0.000000 	0.000000 	1 	; 
 	83  	80  	  2800.0000000000 	234.0000000000 	 5.6666670000 	1.0000000000 	4.000000 	0.000000 	0.000000 	1 	; 
 	83  	84  	   900.0000000000 	 36.0000000000 	 1.0000000000 	1.0000000000 	4.000000 	0.000000 	0.000000 	1 	; 
 	84  	43  	  2800.0000000000 	122.0000000000 	 3.3333330000 	1.0000000000 	4.000000 	0.000000 	0.000000 	1 	; 
 	84  	82  	   900.0000000000 	 37.0000000000 	 1.0000000000 	1.0000000000 	4.000000 	0.000000 	0.000000 	1 	; 
 	84  	255 	   900.0000000000 	 93.0000000000 	 2.6666670000 	1.0000000000 	4.000000 	0.000000 	0.000000 	1 	; 
 	85  	27  	999999.0000000000 	  0.0000000000 	 0.0000000000 	0.0000000000 	4.000000 	0.000000 	0.000000 	0 	; 
 	85  	84  	  2800.0000000000 	246.0000000000 	 9.0000000000 	1.0000000000 	4.000000 	0.000000 	0.000000 	1 	; 
 	86  	91  	  2800.0000000000 	 34.0000000000 	 2.0000000000 	1.0000000000 	4.000000 	0.000000 	0.000000 	1 	; 
 	86  	101 	  2800.0000000000 	174.0000000000 	 4.3333330000 	1.0000000000 	4.000000 	0.000000 	0.000000 	1 	; 
 	87  	88  	  2800.0000000000 	 30.0000000000 	 1.6666670000 	1.0000000000 	4.000000 	0.000000 	0.000000 	1 	; 
 	87  	223 	  2800.0000000000 	164.0000000000 	 6.0000000000 	1.0000000000 	4.000000 	0.000000 	0.000000 	1 	; 
 	88  	94  	  2800.0000000000 	 21.0000000000 	 2.6666670000 	1.0000000000 	4.000000 	0.000000 	0.000000 	1 	; 
 	88  	138 	  2400.0000000000 	 68.0000000000 	 2.0000000000 	1.0000000000 	4.000000 	0.000000 	0.000000 	1 	; 
 	89  	54  	  2800.0000000000 	123.0000000000 	 5.3333330000 	1.0000000000 	4.000000 	0.000000 	0.000000 	1 	; 
 	91  	79  	  2800.0000000000 	 32.0000000000 	 1.0000000000 	1.0000000000 	4.000000 	0.000000 	0.000000 	1 	; 
 	91  	105 	  2800.0000000000 	206.0000000000 	 5.6666670000 	1.0000000000 	4.000000 	0.000000 	0.000000 	1 	; 
 	92  	89  	  2800.0000000000 	115.0000000000 	 3.3333330000 	1.0000000000 	4.000000 	0.000000 	0.000000 	1 	; 
 	93  	12  	999999.0000000000 	  0.0000000000 	 0.0000000000 	0.0000000000 	4.000000 	0.000000 	0.000000 	0 	; 
 	94  	95  	  2800.0000000000 	 29.0000000000 	 1.3333330000 	1.0000000000 	4.000000 	0.000000 	0.000000 	1 	; 
 	94  	99  	  2800.0000000000 	162.0000000000 	 4.3333330000 	1.0000000000 	4.000000 	0.000000 	0.000000 	1 	; 
 	95  	87  	  2800.0000000000 	 21.0000000000 	 2.0000000000 	1.0000000000 	4.000000 	0.000000 	0.000000 	1 	; 
 	95  	124 	  2800.0000000000 	191.0000000000 	 9.0000000000 	1.0000000000 	4.000000 	0.000000 	0.000000 	1 	; 
 	96  	12  	999999.0000000000 	  0.0000000000 	 0.0000000000 	0.0000000000 	4.000000 	0.000000 	0.000000 	0 	; 
 	96  	71  	  2800.0000000000 	231.0000000000 	18.3333330000 	1.0000000000 	4.000000 	0.000000 	0.000000 	1 	; 
 	97  	24  	999999.0000000000 	  0.0000000000 	 0.0000000000 	0.0000000000 	4.000000 	0.000000 	0.000000 	0 	; 
 	97  	98  	   600.0000000000 	 34.0000000000 	 1.0000000000 	1.0000000000 	4.000000 	0.000000 	0.000000 	1 	; 
 	97  	107 	  2800.0000000000 	105.0000000000 	 4.0000000000 	1.0000000000 	4.000000 	0.000000 	0.000000 	1 	; 
 	98  	97  	   600.0000000000 	 34.0000000000 	 1.0000000000 	1.0000000000 	4.000000 	0.000000 	0.000000 	1 	; 
 	98  	103 	  2800.0000000000 	184.0000000000 	 5.0000000000 	1.0000000000 	4.000000 	0.000000 	0.000000 	1 	; 
 	99  	24  	999999.0000000000 	  0.0000000000 	 0.0000000000 	0.0000000000 	4.000000 	0.000000 	0.000000 	0 	; 
 	99  	97  	  2800.0000000000 	181.0000000000 	 8.3333330000 	1.0000000000 	4.000000 	0.000000 	0.000000 	1 	; 
 	99  	103 	   600.0000000000 	 32.0000000000 	 0.6666670000 	1.0000000000 	4.000000 	0.000000 	0.000000 	1 	; 
 	100 	16  	999999.0000000000 	  0.0000000000 	 0.0000000000 	0.0000000000 	4.000000 	0.000000 	0.000000 	0 	; 
 	100 	32  	999999.0000000000 	  0.0000000000 	 0.0000000000 	0.0000000000 	4.000000 	0.000000 	0.000000 	0 	; 
 	100 	104 	  2800.0000000000 	110.0000000000 	 3.0000000000 	1.0000000000 	4.000000 	0.000000 	0.000000 	1 	; 
 	101 	102 	  2800.0000000000 	 95.0000000000 	 2.6666670000 	1.0000000000 	4.000000 	0.000000 	0.000000 	1 	; 
 	101 	106 	   900.0000000000 	 37.0000000000 	 1.0000000000 	1.0000000000 	4.000000 	0.000000 	0.000000 	1 	; 