<NUMBER OF ZONES> 2
<TOTAL OD FLOW>   6.0
<END OF METADATA>

Origin 	1 
    1 :      0.0;     2 :     6.0;

