<NUMBER OF ZONES> 2
<NUMBER OF NODES> 4
<FIRST THRU NODE> 1
<NUMBER OF LINKS> 5
<END OF METADATA>
~ 	Init node 	Term node 	Capacity 	Length 	Free Flow Time 	B	Power	Speed limit 	Toll 	Type	;
1    3    1  100 0.00000001   1000000000    1    0    0    1;
1    4    1  100   50    0.02    1    0    0    1; 
3    2    1  100   50    0.02    1    0    0    1;
3    4    1  100   10    0.1    1    0    0    1;  
4    2    1  100  0.00000001   1000000000    1    0    0    1;

   


