<NUMBER OF ZONES> 154
<NUMBER OF NODES> 1057
<FIRST THRU NODE> 155
<NUMBER OF LINKS> 2535
<END OF METADATA> 
~	Init node	Term node	Capacity	Length	Free Flow Time	B	Power	Speed limit	Toll	Type	;
1	1036	800	0.24	0.75	0.1	1.5	50	0	1;
1	1050	2000	0.31	0.75	0.1	1.5	80	0	1;
2	975	1000	0.23	0.75	0.1	1.5	100	0	1;
2	990	800	0.23	0.75	0.1	1.5	120	0	1;
2	993	2000	0.34	0.75	0.1	1.5	30	0	1;
3	966	1000	0.23	0.75	0.1	1.5	50	0	1;
3	1000	800	0.23	0.75	0.1	1.5	80	0	1;
3	1020	2000	0.23	0.75	0.1	1.5	100	0	1;
3	1022	1000	0.19	0.75	0.1	1.5	120	0	1;
4	969	800	0.18	0.75	0.1	1.5	30	0	1;
4	997	2000	0.18	0.75	0.1	1.5	50	0	1;
4	1007	1000	0.18	0.75	0.1	1.5	80	0	1;
4	1009	800	0.18	0.75	0.1	1.5	100	0	1;
4	1017	2000	0.21	0.75	0.1	1.5	120	0	1;
5	882	1000	0.26	0.75	0.1	1.5	30	0	1;
5	912	800	0.31	0.75	0.1	1.5	50	0	1;
5	913	2000	0.23	0.75	0.1	1.5	80	0	1;
6	890	1000	0.18	0.75	0.1	1.5	100	0	1;
6	916	800	0.24	0.75	0.1	1.5	120	0	1;
6	919	2000	0.11	0.75	0.1	1.5	30	0	1;
7	941	1000	0.35	0.75	0.1	1.5	50	0	1;
7	942	800	0.32	0.75	0.1	1.5	80	0	1;
7	944	2000	0.29	0.75	0.1	1.5	100	0	1;
7	946	1000	0.32	0.75	0.1	1.5	120	0	1;
7	948	800	0.35	0.75	0.1	1.5	30	0	1;
8	895	2000	0.21	0.75	0.1	1.5	50	0	1;
8	922	1000	0.23	0.75	0.1	1.5	80	0	1;
9	1048	800	0.1	0.75	0.1	1.5	100	0	1;
10	773	2000	0.4	0.75	0.1	1.5	120	0	1;
10	1047	1000	0.61	0.75	0.1	1.5	30	0	1;
11	161	800	0.4	0.75	0.1	1.5	50	0	1;
11	189	2000	0.4	0.75	0.1	1.5	80	0	1;
12	162	1000	0.4	0.75	0.1	1.5	100	0	1;
12	188	800	0.45	0.75	0.1	1.5	120	0	1;
13	165	2000	0.34	0.75	0.1	1.5	30	0	1;
14	164	1000	0.48	0.75	0.1	1.5	50	0	1;
14	186	800	0.45	0.75	0.1	1.5	80	0	1;
14	204	2000	0.92	0.75	0.1	1.5	100	0	1;
15	166	1000	0.29	0.75	0.1	1.5	120	0	1;
15	183	800	0.19	0.75	0.1	1.5	30	0	1;
16	207	2000	0.76	0.75	0.1	1.5	50	0	1;
16	221	1000	0.53	0.75	0.1	1.5	80	0	1;
17	168	800	0.4	0.75	0.1	1.5	100	0	1;
17	201	2000	0.98	0.75	0.1	1.5	120	0	1;
18	171	1000	0.68	0.75	0.1	1.5	30	0	1;
18	181	800	0.69	0.75	0.1	1.5	50	0	1;
18	198	2000	0.69	0.75	0.1	1.5	80	0	1;
19	203	1000	0.76	0.75	0.1	1.5	100	0	1;
19	219	800	0.5	0.75	0.1	1.5	120	0	1;
19	222	2000	0.4	0.75	0.1	1.5	30	0	1;
20	172	1000	0.64	0.75	0.1	1.5	50	0	1;
20	197	800	0.64	0.75	0.1	1.5	80	0	1;
21	175	2000	0.31	0.75	0.1	1.5	100	0	1;
21	214	1000	1.51	0.75	0.1	1.5	120	0	1;
22	288	800	0.32	0.75	0.1	1.5	30	0	1;
23	304	2000	0.26	0.75	0.1	1.5	50	0	1;
24	291	1000	0.43	0.75	0.1	1.5	80	0	1;
24	303	800	0.43	0.75	0.1	1.5	100	0	1;
25	233	2000	0.32	0.75	0.1	1.5	120	0	1;
25	234	1000	0.24	0.75	0.1	1.5	30	0	1;
26	285	800	0.21	0.75	0.1	1.5	50	0	1;
27	311	2000	0.19	0.75	0.1	1.5	80	0	1;
28	230	1000	0.45	0.75	0.1	1.5	100	0	1;
28	249	800	0.42	0.75	0.1	1.5	120	0	1;
29	243	2000	0.24	0.75	0.1	1.5	30	0	1;
30	265	1000	0.35	0.75	0.1	1.5	50	0	1;
30	272	800	0.35	0.75	0.1	1.5	80	0	1;
31	250	2000	0.8	0.75	0.1	1.5	100	0	1;
31	252	1000	1.08	0.75	0.1	1.5	120	0	1;
32	272	800	0.31	0.75	0.1	1.5	30	0	1;
33	299	2000	0.37	0.75	0.1	1.5	50	0	1;
33	300	1000	0.37	0.75	0.1	1.5	80	0	1;
33	316	800	0.34	0.75	0.1	1.5	100	0	1;
33	317	2000	0.48	0.75	0.1	1.5	120	0	1;
34	298	1000	0.34	0.75	0.1	1.5	30	0	1;
35	399	800	0.23	0.75	0.1	1.5	50	0	1;
36	320	2000	0.32	0.75	0.1	1.5	80	0	1;
37	323	1000	0.34	0.75	0.1	1.5	100	0	1;
38	313	800	1.03	0.75	0.1	1.5	120	0	1;
38	366	2000	1.19	0.75	0.1	1.5	30	0	1;
38	372	1000	0.8	0.75	0.1	1.5	50	0	1;
38	377	800	1.03	0.75	0.1	1.5	80	0	1;
39	352	2000	0.23	0.75	0.1	1.5	100	0	1;
40	354	1000	0.24	0.75	0.1	1.5	120	0	1;
41	327	800	0.19	0.75	0.1	1.5	30	0	1;
42	328	2000	0.51	0.75	0.1	1.5	50	0	1;
42	329	1000	0.47	0.75	0.1	1.5	80	0	1;
43	358	800	0.47	0.75	0.1	1.5	100	0	1;
44	337	2000	0.53	0.75	0.1	1.5	120	0	1;
44	338	1000	0.58	0.75	0.1	1.5	30	0	1;
44	349	800	0.61	0.75	0.1	1.5	50	0	1;
45	378	2000	0.82	0.75	0.1	1.5	80	0	1;
45	389	1000	0.82	0.75	0.1	1.5	100	0	1;
46	341	800	0.51	0.75	0.1	1.5	120	0	1;
46	346	2000	0.53	0.75	0.1	1.5	30	0	1;
46	362	1000	1.83	0.75	0.1	1.5	50	0	1;
47	406	800	0.24	0.75	0.1	1.5	80	0	1;
47	407	2000	0.24	0.75	0.1	1.5	100	0	1;
47	408	1000	0.64	0.75	0.1	1.5	120	0	1;
48	415	800	0.27	0.75	0.1	1.5	30	0	1;
49	492	2000	0.18	0.75	0.1	1.5	50	0	1;
50	417	1000	0.51	0.75	0.1	1.5	80	0	1;
51	416	800	0.45	0.75	0.1	1.5	100	0	1;
51	425	2000	0.35	0.75	0.1	1.5	120	0	1;
52	426	1000	0.42	0.75	0.1	1.5	30	0	1;
52	488	800	0.39	0.75	0.1	1.5	50	0	1;
52	491	2000	0.48	0.75	0.1	1.5	80	0	1;
52	493	1000	0.48	0.75	0.1	1.5	100	0	1;
53	439	800	0.29	0.75	0.1	1.5	120	0	1;
54	433	2000	0.48	0.75	0.1	1.5	30	0	1;
54	436	1000	0.34	0.75	0.1	1.5	50	0	1;
54	440	800	0.32	0.75	0.1	1.5	80	0	1;
55	434	2000	0.42	0.75	0.1	1.5	100	0	1;
55	479	1000	0.39	0.75	0.1	1.5	120	0	1;
55	483	800	1.14	0.75	0.1	1.5	30	0	1;
56	432	2000	0.55	0.75	0.1	1.5	50	0	1;
56	1057	1000	1.37	0.75	0.1	1.5	80	0	1;
57	441	800	0.31	0.75	0.1	1.5	100	0	1;
58	442	2000	0.31	0.75	0.1	1.5	120	0	1;
58	479	1000	0.53	0.75	0.1	1.5	30	0	1;
59	448	800	0.32	0.75	0.1	1.5	50	0	1;
60	534	2000	0.34	0.75	0.1	1.5	80	0	1;
61	532	1000	0.45	0.75	0.1	1.5	100	0	1;
62	451	800	0.92	0.75	0.1	1.5	120	0	1;
62	459	2000	0.66	0.75	0.1	1.5	30	0	1;
63	446	1000	0.66	0.75	0.1	1.5	50	0	1;
63	470	800	1	0.75	0.1	1.5	80	0	1;
63	473	2000	0.66	0.75	0.1	1.5	100	0	1;
64	452	1000	0.51	0.75	0.1	1.5	120	0	1;
64	468	800	0.61	0.75	0.1	1.5	30	0	1;
64	470	2000	0.8	0.75	0.1	1.5	50	0	1;
65	462	1000	0.4	0.75	0.1	1.5	80	0	1;
66	498	800	0.32	0.75	0.1	1.5	100	0	1;
66	503	2000	0.35	0.75	0.1	1.5	120	0	1;
66	512	1000	0.34	0.75	0.1	1.5	30	0	1;
66	513	800	0.47	0.75	0.1	1.5	50	0	1;
67	513	2000	0.53	0.75	0.1	1.5	80	0	1;
67	518	1000	0.4	0.75	0.1	1.5	100	0	1;
68	511	800	0.35	0.75	0.1	1.5	120	0	1;
68	515	2000	0.26	0.75	0.1	1.5	30	0	1;
69	504	1000	0.34	0.75	0.1	1.5	50	0	1;
69	511	800	0.47	0.75	0.1	1.5	80	0	1;
70	521	2000	0.31	0.75	0.1	1.5	100	0	1;
70	528	1000	1.06	0.75	0.1	1.5	120	0	1;
71	522	800	0.37	0.75	0.1	1.5	30	0	1;
71	526	2000	0.56	0.75	0.1	1.5	50	0	1;
72	509	1000	0.18	0.75	0.1	1.5	80	0	1;
73	505	800	0.4	0.75	0.1	1.5	100	0	1;
73	510	2000	0.39	0.75	0.1	1.5	120	0	1;
73	516	1000	0.55	0.75	0.1	1.5	30	0	1;
74	540	800	0.5	0.75	0.1	1.5	50	0	1;
74	570	2000	0.68	0.75	0.1	1.5	80	0	1;
74	572	1000	0.58	0.75	0.1	1.5	100	0	1;
75	568	800	0.61	0.75	0.1	1.5	120	0	1;
76	542	2000	0.77	0.75	0.1	1.5	30	0	1;
76	566	1000	0.56	0.75	0.1	1.5	50	0	1;
77	548	800	0.56	0.75	0.1	1.5	80	0	1;
77	560	2000	0.47	0.75	0.1	1.5	100	0	1;
78	562	1000	0.84	0.75	0.1	1.5	120	0	1;
79	549	800	0.53	0.75	0.1	1.5	30	0	1;
80	683	2000	0.24	0.75	0.1	1.5	50	0	1;
80	684	1000	0.24	0.75	0.1	1.5	80	0	1;
80	685	800	0.27	0.75	0.1	1.5	100	0	1;
81	582	2000	0.48	0.75	0.1	1.5	120	0	1;
81	583	1000	0.48	0.75	0.1	1.5	30	0	1;
81	591	800	0.48	0.75	0.1	1.5	50	0	1;
82	680	2000	0.29	0.75	0.1	1.5	80	0	1;
82	682	1000	0.29	0.75	0.1	1.5	100	0	1;
83	593	800	0.21	0.75	0.1	1.5	120	0	1;
84	595	2000	0.51	0.75	0.1	1.5	30	0	1;
84	670	1000	0.51	0.75	0.1	1.5	50	0	1;
84	674	800	0.35	0.75	0.1	1.5	80	0	1;
84	675	2000	0.35	0.75	0.1	1.5	100	0	1;
85	662	1000	0.27	0.75	0.1	1.5	120	0	1;
85	668	800	0.19	0.75	0.1	1.5	30	0	1;
86	599	2000	0.34	0.75	0.1	1.5	50	0	1;
87	657	1000	0.35	0.75	0.1	1.5	80	0	1;
88	601	800	0.48	0.75	0.1	1.5	100	0	1;
88	648	2000	0.42	0.75	0.1	1.5	120	0	1;
89	605	1000	0.32	0.75	0.1	1.5	30	0	1;
90	603	800	0.5	0.75	0.1	1.5	50	0	1;
90	642	2000	0.71	0.75	0.1	1.5	80	0	1;
90	643	1000	0.5	0.75	0.1	1.5	100	0	1;
90	647	800	0.71	0.75	0.1	1.5	120	0	1;
91	606	2000	0.58	0.75	0.1	1.5	30	0	1;
91	639	1000	0.55	0.75	0.1	1.5	50	0	1;
92	609	800	0.72	0.75	0.1	1.5	80	0	1;
92	630	2000	0.53	0.75	0.1	1.5	100	0	1;
93	626	1000	1.21	0.75	0.1	1.5	120	0	1;
93	635	800	1.82	0.75	0.1	1.5	30	0	1;
94	608	2000	0.69	0.75	0.1	1.5	50	0	1;
95	618	1000	0.61	0.75	0.1	1.5	80	0	1;
95	625	800	0.97	0.75	0.1	1.5	100	0	1;
96	727	2000	0.16	0.75	0.1	1.5	120	0	1;
97	678	1000	0.42	0.75	0.1	1.5	30	0	1;
97	689	800	0.45	0.75	0.1	1.5	50	0	1;
97	691	2000	0.53	0.75	0.1	1.5	80	0	1;
97	1056	1000	0.53	0.75	0.1	1.5	100	0	1;
98	688	800	0.45	0.75	0.1	1.5	120	0	1;
98	721	2000	0.29	0.75	0.1	1.5	30	0	1;
98	724	1000	0.34	0.75	0.1	1.5	50	0	1;
99	730	800	0.23	0.75	0.1	1.5	80	0	1;
99	732	2000	0.31	0.75	0.1	1.5	100	0	1;
100	671	1000	0.56	0.75	0.1	1.5	120	0	1;
100	691	800	0.64	0.75	0.1	1.5	30	0	1;
100	707	2000	0.53	0.75	0.1	1.5	50	0	1;
100	1056	1000	0.64	0.75	0.1	1.5	80	0	1;
101	718	800	0.39	0.75	0.1	1.5	100	0	1;
101	734	2000	0.39	0.75	0.1	1.5	120	0	1;
102	754	1000	0.29	0.75	0.1	1.5	30	0	1;
102	756	800	0.64	0.75	0.1	1.5	50	0	1;
103	702	2000	0.27	0.75	0.1	1.5	80	0	1;
103	703	1000	0.37	0.75	0.1	1.5	100	0	1;
104	735	800	0.39	0.75	0.1	1.5	120	0	1;
104	739	2000	0.39	0.75	0.1	1.5	30	0	1;
104	740	1000	0.39	0.75	0.1	1.5	50	0	1;
105	699	800	0.37	0.75	0.1	1.5	80	0	1;
106	744	2000	0.6	0.75	0.1	1.5	100	0	1;
106	787	1000	1	0.75	0.1	1.5	120	0	1;
106	791	800	0.69	0.75	0.1	1.5	30	0	1;
107	765	2000	0.39	0.75	0.1	1.5	50	0	1;
107	776	1000	0.43	0.75	0.1	1.5	80	0	1;
108	769	800	0.27	0.75	0.1	1.5	100	0	1;
108	770	2000	0.34	0.75	0.1	1.5	120	0	1;
109	759	1000	0.37	0.75	0.1	1.5	30	0	1;
109	779	800	0.45	0.75	0.1	1.5	50	0	1;
110	808	2000	0.48	0.75	0.1	1.5	80	0	1;
110	810	1000	0.55	0.75	0.1	1.5	100	0	1;
110	813	800	0.45	0.75	0.1	1.5	120	0	1;
110	825	2000	0.42	0.75	0.1	1.5	30	0	1;
111	805	1000	0.5	0.75	0.1	1.5	50	0	1;
111	814	800	0.34	0.75	0.1	1.5	80	0	1;
111	815	2000	0.4	0.75	0.1	1.5	100	0	1;
111	821	1000	0.39	0.75	0.1	1.5	120	0	1;
112	815	800	0.45	0.75	0.1	1.5	30	0	1;
112	816	2000	0.31	0.75	0.1	1.5	50	0	1;
113	783	1000	0.35	0.75	0.1	1.5	80	0	1;
113	784	800	0.39	0.75	0.1	1.5	100	0	1;
114	781	2000	0.58	0.75	0.1	1.5	120	0	1;
114	812	1000	0.31	0.75	0.1	1.5	30	0	1;
114	828	800	0.58	0.75	0.1	1.5	50	0	1;
115	825	2000	0.58	0.75	0.1	1.5	80	0	1;
115	835	1000	0.53	0.75	0.1	1.5	100	0	1;
116	838	800	0.21	0.75	0.1	1.5	120	0	1;
117	841	2000	0.32	0.75	0.1	1.5	30	0	1;
117	842	1000	0.4	0.75	0.1	1.5	50	0	1;
118	846	800	0.34	0.75	0.1	1.5	80	0	1;
118	859	2000	0.76	0.75	0.1	1.5	100	0	1;
119	844	1000	0.37	0.75	0.1	1.5	120	0	1;
119	868	800	0.35	0.75	0.1	1.5	30	0	1;
120	829	2000	0.56	0.75	0.1	1.5	50	0	1;
120	835	1000	0.84	0.75	0.1	1.5	80	0	1;
120	848	800	0.84	0.75	0.1	1.5	100	0	1;
121	858	2000	0.92	0.75	0.1	1.5	120	0	1;
121	866	1000	0.34	0.75	0.1	1.5	30	0	1;
122	864	800	0.42	0.75	0.1	1.5	50	0	1;
123	856	2000	0.8	0.75	0.1	1.5	80	0	1;
124	861	1000	0.45	0.75	0.1	1.5	100	0	1;
125	634	800	0.85	0.75	0.1	1.5	120	0	1;
126	787	2000	0.48	0.75	0.1	1.5	30	0	1;
126	789	1000	0.48	0.75	0.1	1.5	50	0	1;
127	359	800	1.37	0.75	0.1	1.5	80	0	1;
127	390	2000	1.46	0.75	0.1	1.5	100	0	1;
127	398	1000	1.21	0.75	0.1	1.5	120	0	1;
128	573	800	1.14	0.75	0.1	1.5	30	0	1;
128	580	2000	1.14	0.75	0.1	1.5	50	0	1;
129	574	1000	1.37	0.75	0.1	1.5	80	0	1;
129	579	800	1.37	0.75	0.1	1.5	100	0	1;
130	575	2000	1.53	0.75	0.1	1.5	120	0	1;
130	578	1000	1.53	0.75	0.1	1.5	30	0	1;
131	644	800	0.45	0.75	0.1	1.5	50	0	1;
132	176	2000	0.8	0.75	0.1	1.5	80	0	1;
133	213	1000	0.8	0.75	0.1	1.5	100	0	1;
134	262	800	0.8	0.75	0.1	1.5	120	0	1;
135	395	2000	0.8	0.75	0.1	1.5	30	0	1;
136	365	1000	0.8	0.75	0.1	1.5	50	0	1;
136	397	800	0.8	0.75	0.1	1.5	80	0	1;
137	344	2000	0.8	0.75	0.1	1.5	100	0	1;
138	466	1000	0.8	0.75	0.1	1.5	120	0	1;
139	536	800	0.8	0.75	0.1	1.5	30	0	1;
140	553	2000	0.8	0.75	0.1	1.5	50	0	1;
140	554	1000	0.8	0.75	0.1	1.5	80	0	1;
141	576	800	0.8	0.75	0.1	1.5	100	0	1;
141	577	2000	0.8	0.75	0.1	1.5	120	0	1;
142	747	1000	0.8	0.75	0.1	1.5	30	0	1;
143	748	800	0.8	0.75	0.1	1.5	50	0	1;
144	749	2000	0.8	0.75	0.1	1.5	80	0	1;
145	853	1000	0.8	0.75	0.1	1.5	100	0	1;
146	860	800	0.8	0.75	0.1	1.5	120	0	1;
147	1027	2000	0.23	0.75	0.1	1.5	30	0	1;
147	1052	1000	0.21	0.75	0.1	1.5	50	0	1;
148	197	800	0.51	0.75	0.1	1.5	80	0	1;
148	217	2000	0.61	0.75	0.1	1.5	100	0	1;
149	238	1000	0.55	0.75	0.1	1.5	120	0	1;
149	240	800	0.76	0.75	0.1	1.5	30	0	1;
150	343	2000	1.21	0.75	0.1	1.5	50	0	1;
150	364	1000	1.21	0.75	0.1	1.5	80	0	1;
151	469	800	1.59	0.75	0.1	1.5	100	0	1;
152	468	2000	1.59	0.75	0.1	1.5	120	0	1;
153	467	1000	1.21	0.75	0.1	1.5	30	0	1;
154	552	800	0.8	0.75	0.1	1.5	50	0	1;
154	555	2000	2.41	0.75	0.1	1.5	80	0	1;
155	156	1000	0.22	0.75	0.1	1.5	60	0	1;
155	1045	800	0.43	0.75	0.1	1.5	60	0	1;
156	155	2000	0.22	0.75	0.1	1.5	60	0	1;
156	157	1000	0.16	0.75	0.1	1.5	60	0	1;
157	156	800	0.16	0.75	0.1	1.5	60	0	1;
157	158	2000	0.14	0.75	0.1	1.5	60	0	1;
157	193	1000	0.97	0.75	0.1	1.5	50	0	1;
158	157	800	0.14	0.75	0.1	1.5	60	0	1;
158	159	2000	0.4	0.75	0.1	1.5	60	0	1;
158	192	1000	0.6	0.75	0.1	1.5	50	0	1;
159	158	800	0.4	0.75	0.1	1.5	60	0	1;
159	160	2000	0.23	0.75	0.1	1.5	60	0	1;
159	802	1000	0.95	0.75	0.1	1.5	50	0	1;
160	159	800	0.23	0.75	0.1	1.5	60	0	1;
160	161	2000	0.22	0.75	0.1	1.5	60	0	1;
160	190	1000	0.93	0.75	0.1	1.5	50	0	1;
161	11	800	0.4	0.75	0.1	1.5	120	0	1;
161	160	2000	0.22	0.75	0.1	1.5	60	0	1;
161	162	1000	0.39	0.75	0.1	1.5	60	0	1;
162	12	800	0.4	0.75	0.1	1.5	80	0	1;
162	161	2000	0.39	0.75	0.1	1.5	60	0	1;
162	163	1000	0.42	0.75	0.1	1.5	60	0	1;
163	162	800	0.42	0.75	0.1	1.5	60	0	1;
163	164	2000	0.92	0.75	0.1	1.5	60	0	1;
163	187	1000	1.01	0.75	0.1	1.5	50	0	1;
164	14	800	0.48	0.75	0.1	1.5	100	0	1;
164	163	2000	0.92	0.75	0.1	1.5	60	0	1;
164	165	1000	0.35	0.75	0.1	1.5	60	0	1;
165	13	800	0.34	0.75	0.1	1.5	50	0	1;
165	164	2000	0.35	0.75	0.1	1.5	60	0	1;
165	166	1000	0.63	0.75	0.1	1.5	60	0	1;
166	15	800	0.29	0.75	0.1	1.5	120	0	1;
166	165	2000	0.63	0.75	0.1	1.5	60	0	1;
166	167	1000	0.33	0.75	0.1	1.5	60	0	1;
167	166	800	0.33	0.75	0.1	1.5	60	0	1;
167	168	2000	0.6	0.75	0.1	1.5	60	0	1;
167	183	1000	1.03	0.75	0.1	1.5	50	0	1;
168	17	800	0.4	0.75	0.1	1.5	30	0	1;
168	167	2000	0.6	0.75	0.1	1.5	60	0	1;
168	169	1000	0.31	0.75	0.1	1.5	60	0	1;
169	168	800	0.31	0.75	0.1	1.5	60	0	1;
169	170	2000	0.53	0.75	0.1	1.5	60	0	1;
169	181	1000	1.03	0.75	0.1	1.5	50	0	1;
170	169	800	0.53	0.75	0.1	1.5	60	0	1;
170	171	2000	0.39	0.75	0.1	1.5	60	0	1;
171	18	1000	0.68	0.75	0.1	1.5	100	0	1;
171	170	800	0.39	0.75	0.1	1.5	60	0	1;
171	172	2000	1.08	0.75	0.1	1.5	60	0	1;
172	20	1000	0.64	0.75	0.1	1.5	50	0	1;
172	171	800	1.08	0.75	0.1	1.5	60	0	1;
172	173	2000	0.79	0.75	0.1	1.5	60	0	1;
173	172	1000	0.79	0.75	0.1	1.5	60	0	0;
173	174	800	0.64	0.75	0.1	1.5	60	0	0;
174	173	2000	0.64	0.75	0.1	1.5	60	0	1;
174	175	1000	1.08	0.75	0.1	1.5	60	0	1;
174	215	800	3.14	0.75	0.1	1.5	90	0	0;
174	862	2000	0.84	0.75	0.1	1.5	90	0	1;
175	21	1000	0.31	0.75	0.1	1.5	30	0	1;
175	174	800	1.08	0.75	0.1	1.5	60	0	0;
175	176	2000	0.59	0.75	0.1	1.5	70	0	1;
176	132	1000	0.8	0.75	0.1	1.5	100	0	1;
176	175	800	0.59	0.75	0.1	1.5	70	0	1;
181	18	2000	0.69	0.75	0.1	1.5	30	0	1;
181	169	1000	1.03	0.75	0.1	1.5	50	0	0;
181	200	800	1.03	0.75	0.1	1.5	50	0	0;
183	15	2000	0.19	0.75	0.1	1.5	100	0	1;
183	167	1000	1.03	0.75	0.1	1.5	50	0	0;
183	202	800	0.99	0.75	0.1	1.5	50	0	0;
184	185	2000	0.76	0.75	0.1	1.5	50	0	1;
185	184	1000	0.76	0.75	0.1	1.5	50	0	1;
185	186	800	0.35	0.75	0.1	1.5	50	0	1;
186	14	2000	0.45	0.75	0.1	1.5	120	0	1;
186	185	1000	0.35	0.75	0.1	1.5	50	0	1;
186	187	800	0.76	0.75	0.1	1.5	50	0	1;
187	163	2000	1.01	0.75	0.1	1.5	50	0	0;
187	186	1000	0.76	0.75	0.1	1.5	50	0	1;
187	188	800	0.24	0.75	0.1	1.5	50	0	1;
187	208	2000	0.74	0.75	0.1	1.5	50	0	0;
188	12	1000	0.45	0.75	0.1	1.5	50	0	1;
188	187	800	0.24	0.75	0.1	1.5	50	0	1;
188	189	2000	0.37	0.75	0.1	1.5	50	0	1;
189	11	1000	0.4	0.75	0.1	1.5	120	0	1;
189	188	800	0.37	0.75	0.1	1.5	50	0	1;
189	190	2000	0.29	0.75	0.1	1.5	50	0	1;
190	160	1000	0.93	0.75	0.1	1.5	50	0	0;
190	189	800	0.29	0.75	0.1	1.5	50	0	1;
190	191	2000	0.35	0.75	0.1	1.5	50	0	1;
190	210	1000	0.28	0.75	0.1	1.5	50	0	1;
191	190	800	0.35	0.75	0.1	1.5	50	0	1;
191	192	2000	0.37	0.75	0.1	1.5	50	0	1;
192	158	1000	0.6	0.75	0.1	1.5	50	0	0;
192	191	800	0.37	0.75	0.1	1.5	50	0	1;
192	193	2000	0.24	0.75	0.1	1.5	50	0	1;
192	211	1000	0.51	0.75	0.1	1.5	50	0	1;
193	157	800	0.97	0.75	0.1	1.5	50	0	0;
193	192	2000	0.24	0.75	0.1	1.5	50	0	1;
193	194	1000	0.1	0.75	0.1	1.5	50	0	1;
194	193	800	0.1	0.75	0.1	1.5	50	0	1;
194	195	2000	0.14	0.75	0.1	1.5	50	0	1;
194	212	1000	0.6	0.75	0.1	1.5	50	0	1;
195	194	800	0.14	0.75	0.1	1.5	50	0	1;
195	1046	2000	0.26	0.75	0.1	1.5	50	0	1;
196	197	1000	0.87	0.75	0.1	1.5	50	0	0;
197	20	800	0.64	0.75	0.1	1.5	50	0	1;
197	148	2000	0.51	0.75	0.1	1.5	80	0	1;
197	196	1000	0.87	0.75	0.1	1.5	50	0	1;
197	198	800	0.35	0.75	0.1	1.5	50	0	1;
198	18	2000	0.69	0.75	0.1	1.5	30	0	1;
198	197	1000	0.35	0.75	0.1	1.5	50	0	1;
198	199	800	0.24	0.75	0.1	1.5	50	0	1;
199	198	2000	0.24	0.75	0.1	1.5	50	0	1;
199	200	1000	0.64	0.75	0.1	1.5	50	0	1;
200	181	800	1.03	0.75	0.1	1.5	50	0	1;
200	199	2000	0.64	0.75	0.1	1.5	50	0	1;
200	201	1000	0.47	0.75	0.1	1.5	50	0	1;
200	218	800	1.4	0.75	0.1	1.5	60	0	0;
201	17	2000	0.98	0.75	0.1	1.5	120	0	1;
201	200	1000	0.47	0.75	0.1	1.5	50	0	1;
201	202	800	0.45	0.75	0.1	1.5	50	0	1;
202	183	2000	0.99	0.75	0.1	1.5	50	0	1;
202	201	1000	0.45	0.75	0.1	1.5	50	0	1;
202	203	800	0.57	0.75	0.1	1.5	50	0	1;
202	219	2000	0.96	0.75	0.1	1.5	50	0	1;
203	19	1000	0.76	0.75	0.1	1.5	50	0	1;
203	202	800	0.57	0.75	0.1	1.5	50	0	1;
203	204	2000	0.58	0.75	0.1	1.5	50	0	1;
204	14	1000	0.92	0.75	0.1	1.5	120	0	1;
204	203	800	0.58	0.75	0.1	1.5	50	0	1;
204	205	2000	0.29	0.75	0.1	1.5	50	0	1;
205	204	1000	0.29	0.75	0.1	1.5	50	0	1;
205	206	800	0.21	0.75	0.1	1.5	50	0	1;
206	205	2000	0.21	0.75	0.1	1.5	50	0	1;
206	207	1000	0.37	0.75	0.1	1.5	50	0	1;
206	221	800	0.66	0.75	0.1	1.5	50	0	1;
207	16	2000	0.76	0.75	0.1	1.5	80	0	1;
207	206	1000	0.37	0.75	0.1	1.5	50	0	1;
207	208	800	0.33	0.75	0.1	1.5	50	0	1;
208	187	2000	0.74	0.75	0.1	1.5	50	0	1;
208	207	1000	0.33	0.75	0.1	1.5	50	0	1;
208	209	800	1.29	0.75	0.1	1.5	50	0	1;
209	208	2000	1.29	0.75	0.1	1.5	50	0	1;
209	211	1000	0.34	0.75	0.1	1.5	50	0	1;
209	231	800	0.67	0.75	0.1	1.5	50	0	1;
210	190	2000	0.28	0.75	0.1	1.5	50	0	1;
210	211	1000	0.29	0.75	0.1	1.5	50	0	1;
211	192	800	0.51	0.75	0.1	1.5	50	0	1;
211	209	2000	0.34	0.75	0.1	1.5	50	0	0;
211	210	1000	0.29	0.75	0.1	1.5	50	0	1;
211	212	800	0.32	0.75	0.1	1.5	50	0	1;
212	194	2000	0.6	0.75	0.1	1.5	50	0	1;
212	211	1000	0.32	0.75	0.1	1.5	50	0	1;
212	232	800	1.11	0.75	0.1	1.5	50	0	1;
212	286	2000	0.21	0.75	0.1	1.5	50	0	1;
213	133	1000	0.8	0.75	0.1	1.5	50	0	1;
213	214	800	0.5	0.75	0.1	1.5	90	0	0;
214	21	2000	1.51	0.75	0.1	1.5	100	0	1;
214	213	1000	0.5	0.75	0.1	1.5	90	0	1;
214	215	800	1.23	0.75	0.1	1.5	80	0	1;
215	174	2000	3.14	0.75	0.1	1.5	90	0	0;
215	214	1000	1.23	0.75	0.1	1.5	80	0	1;
215	216	800	0.6	0.75	0.1	1.5	80	0	1;
216	215	2000	0.6	0.75	0.1	1.5	80	0	1;
216	217	1000	1.17	0.75	0.1	1.5	80	0	1;
217	148	800	0.61	0.75	0.1	1.5	50	0	1;
217	216	2000	1.17	0.75	0.1	1.5	80	0	1;
217	218	1000	1.09	0.75	0.1	1.5	80	0	1;
218	200	800	1.4	0.75	0.1	1.5	60	0	0;
218	217	2000	1.09	0.75	0.1	1.5	80	0	1;
218	220	1000	1	0.75	0.1	1.5	80	0	1;
219	19	800	0.5	0.75	0.1	1.5	80	0	1;
219	202	2000	0.96	0.75	0.1	1.5	50	0	0;
219	220	1000	0.85	0.75	0.1	1.5	50	0	0;
220	218	800	1	0.75	0.1	1.5	80	0	1;
220	219	2000	0.85	0.75	0.1	1.5	50	0	1;
220	224	1000	1.53	0.75	0.1	1.5	80	0	1;
220	245	800	1.08	0.75	0.1	1.5	60	0	1;
221	16	2000	0.53	0.75	0.1	1.5	120	0	1;
221	206	1000	0.66	0.75	0.1	1.5	50	0	0;
221	222	800	0.68	0.75	0.1	1.5	50	0	1;
222	19	2000	0.4	0.75	0.1	1.5	80	0	1;
222	221	1000	0.68	0.75	0.1	1.5	50	0	1;
222	223	800	0.53	0.75	0.1	1.5	50	0	1;
223	222	2000	0.53	0.75	0.1	1.5	50	0	1;
223	224	1000	0.46	0.75	0.1	1.5	50	0	0;
224	220	800	1.53	0.75	0.1	1.5	80	0	1;
224	223	2000	0.46	0.75	0.1	1.5	50	0	1;
224	230	1000	0.84	0.75	0.1	1.5	80	0	1;
230	28	800	0.45	0.75	0.1	1.5	30	0	1;
230	224	2000	0.84	0.75	0.1	1.5	80	0	1;
230	237	1000	0.98	0.75	0.1	1.5	80	0	1;
231	209	800	0.67	0.75	0.1	1.5	50	0	0;
231	234	2000	0.79	0.75	0.1	1.5	50	0	1;
232	212	1000	1.11	0.75	0.1	1.5	50	0	1;
232	233	800	0.3	0.75	0.1	1.5	50	0	1;
233	25	2000	0.32	0.75	0.1	1.5	80	0	1;
233	232	1000	0.3	0.75	0.1	1.5	50	0	1;
233	236	800	1.24	0.75	0.1	1.5	50	0	1;
234	25	2000	0.24	0.75	0.1	1.5	30	0	1;
234	231	1000	0.79	0.75	0.1	1.5	50	0	1;
234	235	800	1.01	0.75	0.1	1.5	50	0	1;
235	234	2000	1.01	0.75	0.1	1.5	50	0	1;
236	233	1000	1.24	0.75	0.1	1.5	50	0	1;
236	237	800	0.27	0.75	0.1	1.5	60	0	0;
237	230	2000	0.98	0.75	0.1	1.5	80	0	1;
237	236	1000	0.27	0.75	0.1	1.5	60	0	1;
237	238	800	0.84	0.75	0.1	1.5	60	0	1;
237	278	2000	0.87	0.75	0.1	1.5	80	0	0;
238	29	1000	0.21	0.75	0.1	1.5	30	0	1;
238	149	800	0.55	0.75	0.1	1.5	50	0	1;
238	237	2000	0.84	0.75	0.1	1.5	60	0	0;
238	240	1000	1.24	0.75	0.1	1.5	60	0	1;
240	238	800	1.24	0.75	0.1	1.5	60	0	1;
240	243	2000	0.66	0.75	0.1	1.5	60	0	1;
243	240	1000	0.66	0.75	0.1	1.5	60	0	1;
243	244	800	0.42	0.75	0.1	1.5	50	0	1;
244	243	2000	0.42	0.75	0.1	1.5	50	0	1;
244	251	1000	0.61	0.75	0.1	1.5	50	0	0;
245	220	800	1.08	0.75	0.1	1.5	60	0	0;
245	246	2000	0.57	0.75	0.1	1.5	60	0	1;
246	245	1000	0.57	0.75	0.1	1.5	60	0	1;
246	247	800	0.69	0.75	0.1	1.5	70	0	1;
247	246	2000	0.69	0.75	0.1	1.5	70	0	1;
247	249	1000	0.84	0.75	0.1	1.5	70	0	0;
249	28	800	0.42	0.75	0.1	1.5	50	0	1;
249	247	2000	0.84	0.75	0.1	1.5	70	0	1;
249	250	1000	0.91	0.75	0.1	1.5	50	0	1;
250	31	800	0.8	0.75	0.1	1.5	120	0	1;
250	249	2000	0.91	0.75	0.1	1.5	50	0	1;
250	251	1000	0.64	0.75	0.1	1.5	50	0	1;
251	244	800	0.61	0.75	0.1	1.5	50	0	1;
251	250	2000	0.64	0.75	0.1	1.5	50	0	1;
251	252	1000	1.64	0.75	0.1	1.5	50	0	1;
251	269	800	0.22	0.75	0.1	1.5	50	0	1;
252	31	2000	1.08	0.75	0.1	1.5	50	0	1;
252	251	1000	1.64	0.75	0.1	1.5	50	0	0;
252	265	800	0.21	0.75	0.1	1.5	50	0	1;
262	134	2000	0.8	0.75	0.1	1.5	120	0	1;
262	263	1000	0.71	0.75	0.1	1.5	90	0	1;
262	395	800	6.18	0.75	0.1	1.5	90	0	0;
263	262	2000	0.71	0.75	0.1	1.5	90	0	1;
263	264	1000	0.9	0.75	0.1	1.5	70	0	1;
263	270	800	0.98	0.75	0.1	1.5	90	0	1;
264	263	2000	0.9	0.75	0.1	1.5	70	0	1;
264	265	1000	2.45	0.75	0.1	1.5	50	0	1;
265	30	800	0.35	0.75	0.1	1.5	80	0	1;
265	252	2000	0.21	0.75	0.1	1.5	50	0	1;
265	264	1000	2.45	0.75	0.1	1.5	50	0	1;
268	30	800	0.29	0.75	0.1	1.5	30	0	1;
268	269	2000	0.23	0.75	0.1	1.5	50	0	1;
268	273	1000	0.63	0.75	0.1	1.5	50	0	1;
269	251	800	0.22	0.75	0.1	1.5	50	0	1;
269	268	2000	0.23	0.75	0.1	1.5	50	0	1;
270	263	1000	0.98	0.75	0.1	1.5	90	0	1;
270	272	800	1.92	0.75	0.1	1.5	90	0	1;
272	30	2000	0.35	0.75	0.1	1.5	80	0	1;
272	32	1000	0.31	0.75	0.1	1.5	100	0	1;
272	270	800	1.92	0.75	0.1	1.5	90	0	1;
272	273	2000	1.61	0.75	0.1	1.5	70	0	0;
273	268	1000	0.63	0.75	0.1	1.5	50	0	1;
273	272	800	1.61	0.75	0.1	1.5	70	0	1;
273	274	2000	0.51	0.75	0.1	1.5	70	0	1;
273	392	1000	0.16	0.75	0.1	1.5	50	0	1;
274	273	800	0.51	0.75	0.1	1.5	70	0	1;
274	275	2000	0.71	0.75	0.1	1.5	70	0	1;
275	274	1000	0.71	0.75	0.1	1.5	70	0	1;
275	277	800	0.84	0.75	0.1	1.5	70	0	1;
277	27	2000	0.61	0.75	0.1	1.5	120	0	1;
277	275	1000	0.84	0.75	0.1	1.5	70	0	1;
277	279	800	1.46	0.75	0.1	1.5	70	0	1;
278	237	2000	0.87	0.75	0.1	1.5	80	0	1;
278	279	1000	0.97	0.75	0.1	1.5	80	0	1;
279	277	800	1.46	0.75	0.1	1.5	70	0	1;
279	278	2000	0.97	0.75	0.1	1.5	80	0	1;
279	280	1000	0.51	0.75	0.1	1.5	50	0	1;
279	310	800	0.45	0.75	0.1	1.5	80	0	1;
280	279	2000	0.51	0.75	0.1	1.5	50	0	1;
280	281	1000	0.69	0.75	0.1	1.5	50	0	1;
280	309	800	0.61	0.75	0.1	1.5	60	0	1;
281	280	2000	0.69	0.75	0.1	1.5	50	0	0;
281	282	1000	1.24	0.75	0.1	1.5	50	0	1;
281	309	800	0.61	0.75	0.1	1.5	50	0	1;
282	26	2000	0.72	0.75	0.1	1.5	120	0	1;
282	281	1000	1.24	0.75	0.1	1.5	50	0	1;
282	283	800	0.34	0.75	0.1	1.5	50	0	0;
283	282	2000	0.34	0.75	0.1	1.5	50	0	1;
283	284	1000	0.43	0.75	0.1	1.5	50	0	1;
283	307	800	1.32	0.75	0.1	1.5	50	0	1;
284	283	2000	0.43	0.75	0.1	1.5	50	0	0;
284	285	1000	0.39	0.75	0.1	1.5	50	0	1;
284	287	800	0.6	0.75	0.1	1.5	50	0	0;
285	26	2000	0.92	0.75	0.1	1.5	100	0	1;
285	284	1000	0.39	0.75	0.1	1.5	50	0	1;
285	286	800	0.42	0.75	0.1	1.5	50	0	1;
286	212	2000	0.21	0.75	0.1	1.5	50	0	1;
286	285	1000	0.42	0.75	0.1	1.5	50	0	1;
287	284	800	0.6	0.75	0.1	1.5	50	0	1;
287	288	2000	0.6	0.75	0.1	1.5	50	0	0;
287	304	1000	0.69	0.75	0.1	1.5	50	0	0;
288	22	800	0.32	0.75	0.1	1.5	50	0	1;
288	287	2000	0.6	0.75	0.1	1.5	50	0	0;
288	289	1000	0.37	0.75	0.1	1.5	50	0	1;
289	288	800	0.37	0.75	0.1	1.5	50	0	1;
289	291	2000	0.58	0.75	0.1	1.5	50	0	1;
289	1054	1000	0.22	0.75	0.1	1.5	50	0	1;
291	24	800	0.43	0.75	0.1	1.5	80	0	1;
291	289	2000	0.58	0.75	0.1	1.5	50	0	0;
291	292	1000	0.53	0.75	0.1	1.5	50	0	1;
292	291	800	0.53	0.75	0.1	1.5	50	0	1;
292	293	2000	0.2	0.75	0.1	1.5	50	0	1;
292	294	1000	0.37	0.75	0.1	1.5	50	0	0;
293	292	800	0.2	0.75	0.1	1.5	50	0	1;
293	298	2000	0.48	0.75	0.1	1.5	50	0	1;
293	300	1000	0.66	0.75	0.1	1.5	50	0	1;
294	293	800	0.37	0.75	0.1	1.5	50	0	1;
294	295	2000	0.29	0.75	0.1	1.5	50	0	1;
294	402	1000	0.27	0.75	0.1	1.5	50	0	1;
295	294	800	0.29	0.75	0.1	1.5	50	0	0;
295	298	2000	0.43	0.75	0.1	1.5	50	0	1;
298	34	1000	0.34	0.75	0.1	1.5	50	0	1;
298	293	800	0.48	0.75	0.1	1.5	50	0	1;
298	295	2000	0.43	0.75	0.1	1.5	50	0	1;
298	317	1000	0.52	0.75	0.1	1.5	50	0	1;
299	33	800	0.37	0.75	0.1	1.5	30	0	1;
299	292	2000	0.45	0.75	0.1	1.5	50	0	1;
300	33	1000	0.37	0.75	0.1	1.5	80	0	1;
300	301	800	0.26	0.75	0.1	1.5	50	0	0;
301	302	2000	0.19	0.75	0.1	1.5	50	0	1;
301	306	1000	0.23	0.75	0.1	1.5	50	0	1;
301	316	800	0.53	0.75	0.1	1.5	50	0	1;
302	299	2000	0.58	0.75	0.1	1.5	50	0	1;
302	301	1000	0.19	0.75	0.1	1.5	50	0	0;
302	303	800	0.57	0.75	0.1	1.5	50	0	1;
303	24	2000	0.43	0.75	0.1	1.5	30	0	1;
303	302	1000	0.57	0.75	0.1	1.5	50	0	0;
303	304	800	0.24	0.75	0.1	1.5	50	0	1;
304	23	2000	0.26	0.75	0.1	1.5	100	0	1;
304	287	1000	0.69	0.75	0.1	1.5	50	0	1;
304	303	800	0.24	0.75	0.1	1.5	50	0	0;
305	302	2000	0.23	0.75	0.1	1.5	50	0	0;
306	305	1000	0.2	0.75	0.1	1.5	50	0	1;
306	307	800	0.64	0.75	0.1	1.5	50	0	0;
307	283	2000	1.32	0.75	0.1	1.5	50	0	1;
307	306	1000	0.64	0.75	0.1	1.5	50	0	1;
307	308	800	0.58	0.75	0.1	1.5	50	0	1;
307	399	2000	0.31	0.75	0.1	1.5	60	0	1;
308	35	1000	0.24	0.75	0.1	1.5	100	0	1;
308	307	800	0.58	0.75	0.1	1.5	50	0	0;
308	309	2000	0.68	0.75	0.1	1.5	60	0	1;
309	280	1000	0.61	0.75	0.1	1.5	60	0	0;
309	281	800	0.61	0.75	0.1	1.5	50	0	1;
309	308	2000	0.68	0.75	0.1	1.5	60	0	1;
309	310	1000	0.8	0.75	0.1	1.5	60	0	0;
310	279	800	0.45	0.75	0.1	1.5	80	0	1;
310	309	2000	0.8	0.75	0.1	1.5	60	0	1;
310	311	1000	0.27	0.75	0.1	1.5	80	0	1;
311	27	800	0.55	0.75	0.1	1.5	100	0	1;
311	310	2000	0.27	0.75	0.1	1.5	80	0	1;
311	312	1000	1.05	0.75	0.1	1.5	80	0	1;
312	311	800	1.05	0.75	0.1	1.5	80	0	1;
312	313	2000	0.82	0.75	0.1	1.5	50	0	1;
312	372	1000	0.83	0.75	0.1	1.5	80	0	1;
313	38	800	1.03	0.75	0.1	1.5	120	0	1;
313	312	2000	0.82	0.75	0.1	1.5	50	0	1;
313	314	1000	0.43	0.75	0.1	1.5	50	0	1;
314	313	800	0.43	0.75	0.1	1.5	50	0	1;
314	315	2000	0.49	0.75	0.1	1.5	50	0	0;
315	314	1000	0.49	0.75	0.1	1.5	50	0	1;
315	366	800	0.56	0.75	0.1	1.5	60	0	1;
315	399	2000	1.03	0.75	0.1	1.5	60	0	1;
316	33	1000	0.34	0.75	0.1	1.5	80	0	1;
316	301	800	0.53	0.75	0.1	1.5	50	0	1;
316	319	2000	0.54	0.75	0.1	1.5	50	0	1;
317	33	1000	0.48	0.75	0.1	1.5	30	0	1;
317	298	800	0.52	0.75	0.1	1.5	50	0	1;
317	318	2000	0.43	0.75	0.1	1.5	50	0	1;
318	317	1000	0.43	0.75	0.1	1.5	50	0	1;
318	319	800	0.34	0.75	0.1	1.5	50	0	1;
318	320	2000	0.39	0.75	0.1	1.5	60	0	1;
319	316	1000	0.54	0.75	0.1	1.5	50	0	1;
319	318	800	0.34	0.75	0.1	1.5	50	0	0;
320	36	2000	0.32	0.75	0.1	1.5	100	0	1;
320	318	1000	0.39	0.75	0.1	1.5	60	0	1;
320	321	800	0.53	0.75	0.1	1.5	60	0	0;
321	320	2000	0.53	0.75	0.1	1.5	60	0	1;
321	322	1000	0.72	0.75	0.1	1.5	60	0	0;
321	352	800	0.83	0.75	0.1	1.5	60	0	1;
322	321	2000	0.72	0.75	0.1	1.5	60	0	0;
322	323	1000	0.71	0.75	0.1	1.5	50	0	1;
322	326	800	0.76	0.75	0.1	1.5	60	0	1;
323	37	2000	0.34	0.75	0.1	1.5	80	0	1;
323	322	1000	0.71	0.75	0.1	1.5	50	0	0;
323	324	800	0.54	0.75	0.1	1.5	50	0	1;
324	323	2000	0.54	0.75	0.1	1.5	50	0	1;
324	325	1000	0.58	0.75	0.1	1.5	70	0	1;
324	419	800	0.36	0.75	0.1	1.5	70	0	1;
325	324	2000	0.58	0.75	0.1	1.5	70	0	1;
325	326	1000	0.8	0.75	0.1	1.5	70	0	0;
325	329	800	1.29	0.75	0.1	1.5	60	0	1;
326	322	2000	0.76	0.75	0.1	1.5	60	0	1;
326	325	1000	0.8	0.75	0.1	1.5	70	0	1;
326	327	800	0.64	0.75	0.1	1.5	60	0	1;
326	353	2000	0.66	0.75	0.1	1.5	70	0	0;
327	41	1000	0.19	0.75	0.1	1.5	30	0	1;
327	326	800	0.64	0.75	0.1	1.5	60	0	1;
327	328	2000	0.87	0.75	0.1	1.5	60	0	1;
328	42	1000	0.51	0.75	0.1	1.5	100	0	1;
328	327	800	0.87	0.75	0.1	1.5	60	0	1;
328	332	2000	0.76	0.75	0.1	1.5	60	0	1;
329	42	1000	0.47	0.75	0.1	1.5	50	0	1;
329	325	800	1.29	0.75	0.1	1.5	60	0	1;
329	332	2000	0.72	0.75	0.1	1.5	60	0	0;
332	328	1000	0.76	0.75	0.1	1.5	60	0	1;
332	329	800	0.72	0.75	0.1	1.5	60	0	1;
332	333	2000	0.68	0.75	0.1	1.5	60	0	1;
332	351	1000	0.25	0.75	0.1	1.5	60	0	1;
333	332	800	0.68	0.75	0.1	1.5	60	0	1;
333	334	2000	0.48	0.75	0.1	1.5	60	0	1;
333	337	1000	1.85	0.75	0.1	1.5	80	0	1;
333	350	800	0.52	0.75	0.1	1.5	80	0	1;
334	333	2000	0.48	0.75	0.1	1.5	60	0	1;
334	338	1000	0.43	0.75	0.1	1.5	60	0	1;
337	44	800	0.53	0.75	0.1	1.5	120	0	1;
337	333	2000	1.85	0.75	0.1	1.5	80	0	0;
337	443	1000	0.46	0.75	0.1	1.5	80	0	1;
338	44	800	0.58	0.75	0.1	1.5	80	0	1;
338	334	2000	0.43	0.75	0.1	1.5	60	0	1;
338	339	1000	0.31	0.75	0.1	1.5	60	0	1;
339	338	800	0.31	0.75	0.1	1.5	60	0	1;
339	340	2000	2.01	0.75	0.1	1.5	70	0	1;
339	348	1000	0.95	0.75	0.1	1.5	50	0	1;
340	339	800	2.01	0.75	0.1	1.5	70	0	1;
340	341	2000	0.4	0.75	0.1	1.5	70	0	1;
340	346	1000	1.29	0.75	0.1	1.5	50	0	1;
341	46	800	0.51	0.75	0.1	1.5	50	0	1;
341	340	2000	0.4	0.75	0.1	1.5	70	0	1;
341	342	1000	1.17	0.75	0.1	1.5	70	0	0;
342	341	800	1.17	0.75	0.1	1.5	70	0	0;
342	343	2000	1	0.75	0.1	1.5	70	0	1;
342	345	1000	2.49	0.75	0.1	1.5	90	0	1;
342	460	800	1.8	0.75	0.1	1.5	90	0	1;
343	150	2000	1.21	0.75	0.1	1.5	100	0	1;
343	342	1000	1	0.75	0.1	1.5	70	0	0;
343	344	800	0.54	0.75	0.1	1.5	70	0	1;
344	137	2000	0.8	0.75	0.1	1.5	50	0	1;
344	343	1000	0.54	0.75	0.1	1.5	70	0	1;
345	342	800	2.49	0.75	0.1	1.5	90	0	1;
345	363	2000	1.37	0.75	0.1	1.5	90	0	1;
346	46	1000	0.53	0.75	0.1	1.5	30	0	1;
346	340	800	1.29	0.75	0.1	1.5	50	0	0;
346	347	2000	0.54	0.75	0.1	1.5	50	0	1;
347	346	1000	0.54	0.75	0.1	1.5	50	0	1;
347	348	800	1.53	0.75	0.1	1.5	50	0	0;
348	339	2000	0.95	0.75	0.1	1.5	50	0	1;
348	347	1000	1.53	0.75	0.1	1.5	50	0	1;
348	349	800	0.6	0.75	0.1	1.5	50	0	1;
348	359	2000	1.3	0.75	0.1	1.5	50	0	1;
349	44	1000	0.61	0.75	0.1	1.5	120	0	1;
349	348	800	0.6	0.75	0.1	1.5	50	0	0;
349	350	2000	0.5	0.75	0.1	1.5	60	0	0;
350	333	1000	0.52	0.75	0.1	1.5	80	0	1;
350	349	800	0.5	0.75	0.1	1.5	60	0	1;
350	351	2000	0.31	0.75	0.1	1.5	60	0	1;
350	357	1000	1.28	0.75	0.1	1.5	80	0	1;
351	332	800	0.25	0.75	0.1	1.5	60	0	0;
351	350	2000	0.31	0.75	0.1	1.5	60	0	0;
352	39	1000	0.23	0.75	0.1	1.5	100	0	1;
352	321	800	0.83	0.75	0.1	1.5	60	0	1;
352	353	2000	0.3	0.75	0.1	1.5	60	0	1;
353	326	1000	0.66	0.75	0.1	1.5	70	0	0;
353	352	800	0.3	0.75	0.1	1.5	60	0	1;
353	354	2000	1.09	0.75	0.1	1.5	60	0	1;
353	368	1000	1.35	0.75	0.1	1.5	70	0	0;
354	40	800	0.24	0.75	0.1	1.5	30	0	1;
354	353	2000	1.09	0.75	0.1	1.5	60	0	1;
354	355	1000	0.79	0.75	0.1	1.5	60	0	1;