<NUMBER OF ZONES> 154
<TOTAL OD FLOW> 1.36148e+006
<END OF METADATA> 

Origin  2
	59 : 100;
Origin  3
	1 : 100;	2 : 125;	4 : 150;	5 : 125;	6 : 125;
	7 : 450;	24 : 325;	26 : 150;	30 : 150;	42 : 125;
	47 : 125;	55 : 150;	58 : 150;	59 : 125;	60 : 150;
	67 : 125;	72 : 125;	81 : 125;	84 : 300;	85 : 150;
	89 : 150;	98 : 650;	99 : 150;	102 : 125;	103 : 800;
	104 : 50;	105 : 125;	106 : 125;	111 : 150;	112 : 325;
	114 : 325;	139 : 125;	146 : 150;	147 : 150;
Origin  4
	6 : 125;	24 : 125;	30 : 250;	52 : 150;	80 : 150;
	85 : 150;	95 : 150;	99 : 150;	100 : 150;	103 : 150;
	105 : 150;	114 : 325;	146 : 150;	147 : 300;
Origin  5
	3 : 150;	4 : 300;	8 : 175;	12 : 150;	25 : 150;
	55 : 175;	59 : 100;	72 : 150;	74 : 175;	85 : 175;
	86 : 150;	97 : 150;	100 : 175;	104 : 50;	106 : 325;
	113 : 175;
Origin  6
	7 : 125;	81 : 150;	104 : 150;	132 : 100;
Origin  7
	1 : 150;	3 : 150;	30 : 175;	38 : 175;	50 : 150;
	94 : 150;	96 : 325;	97 : 175;	98 : 275;	99 : 175;
	100 : 175;	104 : 50;	105 : 150;	106 : 175;	107 : 150;
	109 : 150;	114 : 175;	126 : 175;	146 : 175;
Origin  8
	1 : 175;	7 : 150;	30 : 175;	49 : 150;	58 : 350;
	59 : 175;	100 : 175;	104 : 25;	147 : 175;
Origin  9
	3 : 150;	98 : 125;	100 : 150;	106 : 125;
Origin  10
	1 : 150;	2 : 175;	9 : 200;	26 : 625;	30 : 200;
	59 : 75;	60 : 200;	98 : 175;	100 : 200;	101 : 200;
	102 : 200;	104 : 200;	114 : 425;
Origin  11
	1 : 100;	2 : 150;	3 : 300;	4 : 275;	5 : 250;
	6 : 300;	7 : 275;	8 : 425;	9 : 1150;	10 : 400;
	12 : 875;	13 : 150;	14 : 150;	15 : 150;	17 : 125;
	18 : 125;	19 : 300;	23 : 125;	24 : 300;	25 : 850;
	26 : 725;	27 : 425;	29 : 150;	30 : 725;	31 : 575;
	35 : 150;	38 : 150;	39 : 125;	45 : 125;	47 : 400;
	49 : 275;	54 : 300;	55 : 150;	58 : 275;	59 : 775;
	62 : 100;	65 : 150;	67 : 150;	76 : 150;	77 : 150;
	82 : 125;	84 : 875;	86 : 125;	90 : 150;	95 : 150;
	96 : 250;	97 : 275;	98 : 300;	99 : 400;	100 : 575;
	101 : 300;	102 : 425;	103 : 1450;	104 : 650;	105 : 150;
	107 : 275;	109 : 150;	113 : 275;	114 : 1025;	116 : 150;
	117 : 300;	120 : 300;	135 : 150;	141 : 300;	147 : 1025;

Origin  12
	1 : 150;	2 : 425;	3 : 125;	4 : 125;	5 : 275;
	6 : 150;	7 : 275;	8 : 175;	9 : 300;	11 : 425;
	14 : 150;	16 : 125;	18 : 125;	19 : 150;	25 : 125;
	27 : 400;	29 : 150;	30 : 125;	31 : 275;	35 : 300;
	48 : 125;	55 : 150;	58 : 150;	59 : 225;	67 : 150;
	69 : 150;	72 : 125;	80 : 125;	81 : 275;	82 : 150;
	83 : 125;	84 : 125;	87 : 150;	88 : 300;	91 : 150;
	97 : 150;	98 : 400;	99 : 125;	100 : 150;	102 : 275;
	103 : 725;	104 : 725;	105 : 125;	108 : 125;	112 : 300;
	114 : 150;	120 : 150;	139 : 125;	142 : 300;	147 : 275;

Origin  13
	1 : 625;	2 : 775;	3 : 750;	4 : 300;	5 : 150;
	6 : 125;	7 : 125;	8 : 75;	9 : 150;	10 : 125;
	11 : 300;	12 : 275;	17 : 125;	18 : 150;	22 : 150;
	30 : 125;	31 : 625;	44 : 125;	48 : 125;	55 : 150;
	58 : 150;	59 : 525;	81 : 150;	85 : 150;	98 : 475;
	100 : 300;	101 : 150;	102 : 150;	103 : 300;	104 : 50;
	112 : 125;	116 : 150;	117 : 300;	144 : 150;	147 : 300;

Origin  14
	1 : 275;	2 : 725;	3 : 300;	4 : 150;	5 : 275;
	6 : 575;	7 : 425;	8 : 575;	9 : 875;	10 : 275;
	11 : 150;	12 : 300;	15 : 150;	16 : 150;	18 : 125;
	19 : 150;	23 : 150;	24 : 125;	25 : 125;	26 : 300;
	27 : 725;	29 : 150;	30 : 125;	31 : 750;	35 : 150;
	38 : 150;	50 : 125;	52 : 450;	55 : 125;	58 : 150;
	59 : 925;	63 : 125;	70 : 150;	81 : 450;	84 : 150;
	85 : 125;	86 : 600;	87 : 300;	96 : 100;	97 : 300;
	98 : 425;	99 : 125;	100 : 450;	102 : 275;	103 : 875;
	104 : 600;	107 : 125;	108 : 150;	109 : 125;	114 : 125;
	117 : 150;	131 : 150;	146 : 600;	147 : 450;
Origin  15
	2 : 425;	3 : 525;	4 : 150;	5 : 125;	7 : 250;
	8 : 200;	10 : 150;	13 : 150;	14 : 150;	16 : 125;
	18 : 150;	19 : 150;	22 : 125;	24 : 125;	25 : 125;
	30 : 125;	31 : 425;	38 : 150;	48 : 125;	49 : 275;
	52 : 275;	54 : 150;	55 : 150;	58 : 150;	59 : 475;
	81 : 150;	82 : 150;	85 : 150;	86 : 125;	99 : 150;
	101 : 275;	102 : 250;	103 : 425;	104 : 350;	105 : 125;
	107 : 125;	108 : 150;	109 : 125;	111 : 150;	114 : 150;
	115 : 150;	117 : 150;	137 : 150;	147 : 275;
Origin  16
	1 : 850;	2 : 600;	3 : 250;	4 : 350;	5 : 225;
	6 : 600;	7 : 225;	8 : 375;	9 : 625;	10 : 500;
	11 : 500;	12 : 625;	14 : 500;	17 : 375;	18 : 500;
	19 : 125;	21 : 250;	22 : 100;	23 : 125;	24 : 100;
	25 : 375;	26 : 750;	27 : 1250;	28 : 250;	29 : 375;
	30 : 875;	31 : 125;	32 : 125;	33 : 250;	35 : 375;
	43 : 250;	44 : 100;	47 : 225;	52 : 125;	54 : 250;
	55 : 125;	58 : 350;	59 : 775;	61 : 125;	70 : 250;
	72 : 100;	74 : 125;	77 : 125;	80 : 375;	81 : 225;
	83 : 125;	84 : 100;	85 : 625;	86 : 100;	87 : 125;
	90 : 125;	91 : 225;	92 : 125;	94 : 100;	96 : 325;
	97 : 375;	98 : 500;	99 : 375;	100 : 350;	101 : 500;
	102 : 600;	103 : 875;	104 : 850;	105 : 250;	106 : 125;
	107 : 500;	112 : 625;	114 : 1250;	116 : 125;	117 : 125;
	124 : 125;	135 : 125;	142 : 125;	143 : 125;	146 : 125;
	147 : 725;
Origin  17
	1 : 125;	2 : 975;	3 : 150;	4 : 275;	5 : 125;
	6 : 400;	7 : 400;	8 : 300;	9 : 275;	10 : 400;
	11 : 1125;	12 : 850;	14 : 150;	16 : 275;	18 : 275;
	19 : 2400;	20 : 125;	21 : 150;	23 : 125;	24 : 125;
	25 : 850;	26 : 250;	27 : 1000;	29 : 275;	30 : 675;
	31 : 150;	32 : 125;	33 : 150;	35 : 425;	43 : 150;
	47 : 125;	49 : 150;	52 : 150;	54 : 150;	55 : 150;
	58 : 150;	59 : 1175;	60 : 275;	64 : 150;	74 : 150;
	76 : 150;	77 : 150;	80 : 125;	84 : 425;	85 : 425;
	87 : 125;	88 : 150;	91 : 150;	96 : 225;	97 : 275;
	98 : 400;	99 : 275;	100 : 1000;	101 : 275;	102 : 425;
	103 : 850;	104 : 525;	107 : 125;	108 : 425;	111 : 150;
	112 : 425;	113 : 125;	114 : 575;	115 : 275;	117 : 150;
	118 : 125;	120 : 150;	121 : 150;	123 : 150;	124 : 150;
	133 : 275;	136 : 225;	143 : 150;	144 : 275;	147 : 850;

Origin  18
	1 : 1100;	2 : 1900;	3 : 625;	4 : 1425;	5 : 475;
	6 : 625;	7 : 600;	8 : 900;	9 : 800;	10 : 125;
	11 : 800;	12 : 600;	14 : 950;	15 : 150;	16 : 125;
	17 : 475;	19 : 1425;	20 : 100;	21 : 475;	22 : 150;
	23 : 125;	24 : 125;	25 : 450;	26 : 475;	27 : 1250;
	28 : 625;	29 : 150;	30 : 1225;	31 : 150;	35 : 325;
	36 : 150;	38 : 150;	45 : 325;	47 : 125;	49 : 475;
	51 : 150;	52 : 475;	54 : 150;	55 : 150;	58 : 325;
	59 : 850;	66 : 475;	67 : 300;	71 : 150;	72 : 300;
	80 : 125;	81 : 800;	83 : 150;	84 : 1075;	85 : 475;
	88 : 150;	90 : 150;	95 : 325;	96 : 125;	97 : 475;
	98 : 600;	99 : 475;	100 : 1700;	101 : 325;	102 : 300;
	103 : 150;	104 : 1025;	107 : 300;	108 : 450;	110 : 325;
	111 : 325;	112 : 150;	113 : 1250;	114 : 950;	117 : 950;
	119 : 150;	120 : 150;	133 : 125;	136 : 125;	143 : 150;
	145 : 150;	146 : 925;	147 : 625;
Origin  19
	1 : 250;	2 : 825;	3 : 375;	4 : 275;	6 : 650;
	7 : 250;	8 : 275;	9 : 275;	10 : 100;	11 : 275;
	12 : 275;	16 : 100;	17 : 100;	18 : 550;	22 : 125;
	25 : 250;	26 : 375;	27 : 400;	29 : 125;	30 : 100;
	31 : 125;	33 : 125;	34 : 100;	35 : 125;	36 : 125;
	38 : 125;	47 : 375;	52 : 275;	53 : 125;	55 : 275;
	59 : 225;	72 : 100;	80 : 125;	81 : 100;	85 : 125;
	87 : 100;	90 : 125;	98 : 375;	100 : 400;	101 : 125;
	103 : 675;	104 : 450;	105 : 250;	110 : 100;	113 : 275;
	114 : 100;	117 : 125;	144 : 100;	146 : 125;	147 : 525;

Origin  20
	1 : 150;	5 : 125;	6 : 275;	9 : 125;	13 : 150;
	17 : 125;	19 : 150;	21 : 300;	27 : 125;	31 : 125;
	35 : 150;	38 : 125;	59 : 225;	62 : 100;	69 : 150;
	85 : 150;	98 : 300;	99 : 150;	101 : 125;	103 : 150;
	104 : 200;	105 : 125;	106 : 150;	107 : 125;	114 : 125;
	120 : 150;
Origin  21
	1 : 300;	2 : 325;	3 : 325;	4 : 500;	6 : 175;
	7 : 150;	8 : 275;	9 : 175;	11 : 325;	12 : 500;
	13 : 175;	16 : 150;	17 : 150;	18 : 150;	19 : 650;
	25 : 150;	27 : 175;	29 : 175;	30 : 300;	31 : 500;
	49 : 175;	59 : 350;	81 : 475;	85 : 500;	100 : 325;
	101 : 175;	102 : 175;	103 : 325;	106 : 175;	107 : 150;
	114 : 325;	133 : 325;	147 : 175;
Origin  22
	4 : 125;	9 : 150;	24 : 250;	26 : 425;	27 : 150;
	30 : 150;	58 : 125;	59 : 250;	80 : 125;	91 : 125;
	97 : 125;	100 : 150;	103 : 150;	104 : 175;	138 : 100;
	146 : 150;
Origin  23
	1 : 150;	2 : 200;	5 : 175;	10 : 200;	22 : 375;
	25 : 200;	26 : 200;	28 : 200;	33 : 200;	44 : 175;
	59 : 275;	80 : 175;	102 : 200;	104 : 75;	108 : 200;

Origin  24
	2 : 300;	4 : 325;	6 : 325;	8 : 325;	11 : 175;
	22 : 175;	23 : 150;	26 : 175;	27 : 1125;	33 : 175;
	35 : 175;	38 : 500;	40 : 175;	42 : 175;	44 : 175;
	45 : 175;	46 : 175;	47 : 300;	59 : 375;	74 : 175;
	80 : 150;	81 : 150;	84 : 175;	85 : 175;	86 : 150;
	91 : 150;	97 : 325;	100 : 175;	103 : 500;	104 : 75;
	105 : 150;	147 : 325;
Origin  25
	1 : 275;	2 : 300;	3 : 125;	4 : 750;	6 : 425;
	7 : 275;	8 : 200;	9 : 875;	11 : 150;	12 : 575;
	14 : 150;	15 : 150;	16 : 275;	17 : 125;	18 : 125;
	19 : 450;	22 : 150;	24 : 125;	26 : 1050;	27 : 600;
	28 : 150;	29 : 150;	30 : 1050;	31 : 450;	35 : 450;
	36 : 150;	42 : 425;	44 : 125;	45 : 150;	46 : 150;
	47 : 125;	48 : 125;	52 : 450;	55 : 150;	58 : 450;
	59 : 775;	62 : 100;	71 : 150;	72 : 125;	81 : 125;
	82 : 150;	83 : 300;	85 : 300;	86 : 150;	97 : 750;
	98 : 275;	99 : 275;	100 : 600;	101 : 300;	102 : 300;
	103 : 600;	104 : 400;	105 : 150;	107 : 125;	108 : 150;
	112 : 300;	113 : 150;	114 : 600;	126 : 150;	147 : 1200;

Origin  26
	24 : 100;	27 : 100;	31 : 125;	33 : 125;	34 : 100;
	44 : 125;	45 : 125;	59 : 175;	72 : 100;	85 : 125;
	100 : 125;	102 : 100;	103 : 125;	111 : 125;	127 : 125;

Origin  27
	10 : 175;	32 : 325;	35 : 175;	48 : 150;	59 : 75;
	85 : 150;	104 : 125;	146 : 175;
Origin  28
	1 : 100;	2 : 150;	12 : 150;	22 : 150;	26 : 325;
	35 : 150;	52 : 150;	59 : 50;	81 : 150;	84 : 150;
	98 : 150;	101 : 150;	114 : 150;	117 : 150;	135 : 150;
	147 : 150;
Origin  29
	11 : 150;	62 : 125;	114 : 150;
Origin  30
	6 : 150;	8 : 125;	27 : 125;	35 : 150;	52 : 150;
	64 : 150;
Origin  31
	1 : 375;	2 : 950;	3 : 1225;	4 : 650;	5 : 250;
	6 : 675;	7 : 250;	8 : 125;	9 : 800;	11 : 125;
	12 : 125;	14 : 100;	17 : 100;	18 : 400;	21 : 275;
	22 : 125;	24 : 275;	25 : 925;	26 : 250;	27 : 3225;
	28 : 400;	29 : 1225;	30 : 5925;	33 : 250;	35 : 400;
	38 : 375;	44 : 250;	47 : 100;	49 : 125;	50 : 75;
	52 : 550;	55 : 400;	58 : 675;	59 : 1850;	65 : 125;
	72 : 100;	76 : 125;	80 : 125;	81 : 275;	82 : 100;
	83 : 125;	84 : 250;	85 : 400;	92 : 125;	96 : 100;
	97 : 125;	98 : 650;	99 : 275;	100 : 675;	101 : 400;
	102 : 125;	103 : 550;	104 : 925;	105 : 250;	106 : 100;
	107 : 525;	112 : 400;	114 : 675;	115 : 125;	117 : 675;
	119 : 125;	120 : 125;	124 : 125;	136 : 100;	139 : 100;
	146 : 125;	147 : 1050;
Origin  32
	8 : 100;	9 : 100;	22 : 125;	27 : 100;	30 : 250;
	47 : 100;	58 : 125;	84 : 125;	103 : 125;	104 : 75;
	114 : 125;	146 : 100;	147 : 125;
Origin  33
	1 : 350;	2 : 175;	4 : 350;	6 : 325;	7 : 150;
	8 : 25;	9 : 500;	12 : 175;	22 : 350;	23 : 325;
	27 : 1350;	30 : 675;	31 : 350;	35 : 350;	36 : 175;
	43 : 175;	44 : 175;	45 : 175;	47 : 325;	48 : 175;
	49 : 150;	52 : 850;	55 : 150;	59 : 575;	74 : 175;
	81 : 350;	88 : 175;	92 : 175;	97 : 175;	98 : 150;
	100 : 350;	103 : 850;	104 : 350;	105 : 325;	106 : 350;
	107 : 150;	108 : 150;	113 : 150;	114 : 350;	117 : 175;
	134 : 175;	136 : 125;
Origin  34
	2 : 150;	3 : 475;	4 : 150;	6 : 175;	8 : 50;
	9 : 175;	18 : 175;	23 : 300;	25 : 150;	27 : 175;
	30 : 325;	31 : 175;	33 : 175;	35 : 325;	47 : 150;
	51 : 175;	52 : 175;	55 : 325;	58 : 150;	59 : 1000;
	60 : 175;	81 : 325;	84 : 150;	85 : 150;	86 : 325;
	91 : 150;	98 : 150;	100 : 325;	102 : 175;	103 : 325;
	104 : 150;	106 : 150;	108 : 150;	147 : 150;
Origin  35
	1 : 125;	4 : 125;	7 : 125;	9 : 150;	11 : 150;
	19 : 150;	23 : 425;	25 : 150;	26 : 125;	28 : 150;
	31 : 125;	33 : 425;	47 : 125;	52 : 150;	59 : 350;
	87 : 125;	100 : 150;	102 : 125;	103 : 150;	104 : 50;
	105 : 125;	132 : 100;
Origin  36
	1 : 150;	2 : 450;	3 : 275;	4 : 450;	6 : 450;
	7 : 275;	8 : 200;	9 : 125;	11 : 150;	16 : 125;
	23 : 300;	24 : 125;	25 : 125;	27 : 425;	30 : 575;
	31 : 275;	33 : 150;	35 : 600;	38 : 150;	48 : 125;
	50 : 125;	52 : 600;	57 : 150;	58 : 300;	59 : 875;
	61 : 125;	62 : 100;	70 : 125;	76 : 150;	80 : 125;
	82 : 125;	84 : 125;	86 : 125;	87 : 125;	92 : 150;
	96 : 125;	97 : 150;	98 : 150;	100 : 125;	101 : 300;
	102 : 150;	103 : 900;	104 : 375;	105 : 275;	106 : 300;
	112 : 150;	114 : 600;	141 : 150;	147 : 600;
Origin  37
	4 : 125;	6 : 100;	8 : 100;	22 : 125;	26 : 100;
	59 : 125;	84 : 100;	86 : 125;	97 : 100;	98 : 100;
	100 : 250;	103 : 125;	109 : 100;	114 : 125;	117 : 125;

Origin  38
	1 : 450;	2 : 1875;	3 : 1250;	4 : 1575;	5 : 325;
	6 : 325;	7 : 125;	8 : 1075;	9 : 775;	11 : 625;
	12 : 475;	13 : 150;	14 : 150;	16 : 150;	19 : 150;
	22 : 800;	23 : 125;	24 : 800;	25 : 450;	26 : 1275;
	27 : 2025;	28 : 150;	29 : 325;	30 : 800;	31 : 800;
	33 : 800;	35 : 2375;	36 : 475;	39 : 150;	41 : 150;
	42 : 150;	44 : 450;	45 : 475;	47 : 300;	49 : 475;
	51 : 150;	52 : 1275;	54 : 300;	55 : 1425;	58 : 1075;
	59 : 3325;	61 : 325;	62 : 350;	66 : 150;	69 : 150;
	72 : 125;	74 : 125;	80 : 600;	81 : 625;	82 : 600;
	84 : 1275;	85 : 475;	86 : 150;	87 : 300;	90 : 150;
	91 : 300;	95 : 125;	96 : 300;	97 : 325;	98 : 1075;
	99 : 125;	100 : 800;	101 : 475;	102 : 300;	103 : 2050;
	104 : 325;	107 : 300;	108 : 150;	109 : 325;	113 : 125;
	114 : 625;	117 : 150;	133 : 325;	135 : 150;	136 : 275;
	147 : 1250;
Origin  39
	1 : 350;	2 : 600;	3 : 350;	4 : 175;	5 : 225;
	6 : 325;	7 : 100;	8 : 200;	9 : 350;	11 : 125;
	23 : 200;	24 : 100;	26 : 100;	27 : 225;	29 : 125;
	30 : 450;	35 : 225;	38 : 125;	40 : 125;	41 : 125;
	42 : 100;	44 : 100;	45 : 100;	47 : 100;	49 : 225;
	52 : 125;	55 : 825;	58 : 225;	59 : 350;	62 : 100;
	65 : 125;	67 : 100;	70 : 100;	80 : 100;	81 : 125;
	82 : 125;	83 : 125;	84 : 225;	85 : 200;	87 : 100;
	88 : 125;	96 : 100;	98 : 125;	100 : 125;	103 : 700;
	105 : 200;	108 : 125;	110 : 100;	112 : 125;	114 : 125;
	117 : 225;	136 : 175;	138 : 75;	147 : 325;
Origin  40
	1 : 250;	2 : 250;	3 : 275;	4 : 375;	5 : 225;
	6 : 225;	7 : 100;	22 : 125;	23 : 100;	24 : 250;
	25 : 125;	27 : 375;	28 : 125;	30 : 525;	31 : 100;
	33 : 100;	35 : 275;	36 : 125;	38 : 800;	39 : 125;
	43 : 125;	44 : 125;	45 : 125;	48 : 100;	49 : 275;
	52 : 400;	54 : 275;	55 : 275;	58 : 100;	59 : 400;
	62 : 75;	65 : 125;	72 : 100;	74 : 125;	81 : 125;
	83 : 125;	84 : 125;	85 : 125;	91 : 125;	98 : 250;
	100 : 125;	103 : 800;	104 : 325;	109 : 125;	114 : 125;
	115 : 125;	133 : 100;	143 : 125;	144 : 100;	147 : 275;

Origin  41
	1 : 225;	2 : 125;	3 : 125;	4 : 300;	5 : 150;
	6 : 300;	7 : 275;	9 : 150;	22 : 150;	24 : 125;
	26 : 150;	27 : 550;	29 : 150;	30 : 125;	33 : 150;
	35 : 300;	38 : 150;	42 : 125;	44 : 125;	47 : 125;
	48 : 125;	49 : 150;	55 : 300;	58 : 300;	59 : 325;
	81 : 425;	84 : 300;	85 : 400;	88 : 425;	97 : 150;
	100 : 150;	101 : 150;	102 : 150;	103 : 425;	104 : 225;
	105 : 400;	107 : 125;	131 : 150;
Origin  42
	1 : 725;	2 : 750;	3 : 225;	4 : 375;	5 : 225;
	6 : 875;	7 : 100;	8 : 700;	9 : 250;	14 : 100;
	19 : 125;	22 : 250;	24 : 100;	25 : 100;	26 : 125;
	27 : 500;	30 : 100;	31 : 625;	35 : 250;	37 : 75;
	38 : 250;	39 : 100;	41 : 125;	44 : 225;	46 : 125;
	47 : 225;	48 : 100;	49 : 375;	52 : 375;	54 : 125;
	55 : 625;	58 : 250;	59 : 1000;	61 : 100;	62 : 200;
	63 : 125;	65 : 125;	66 : 100;	67 : 350;	68 : 125;
	72 : 100;	74 : 125;	76 : 100;	80 : 125;	81 : 125;
	82 : 100;	83 : 125;	84 : 225;	85 : 225;	94 : 100;
	95 : 100;	96 : 75;	97 : 125;	98 : 125;	99 : 375;
	100 : 375;	101 : 125;	103 : 500;	104 : 475;	105 : 350;
	108 : 125;	109 : 125;	110 : 100;	111 : 125;	112 : 250;
	114 : 125;	146 : 125;	147 : 250;
Origin  43
	1 : 425;	2 : 125;	3 : 300;	4 : 300;	6 : 150;
	7 : 125;	11 : 150;	12 : 450;	14 : 125;	17 : 150;
	22 : 300;	25 : 275;	27 : 600;	28 : 150;	30 : 150;
	33 : 425;	35 : 300;	38 : 150;	40 : 150;	41 : 150;
	42 : 125;	45 : 300;	47 : 225;	48 : 425;	49 : 125;
	50 : 125;	52 : 300;	55 : 600;	58 : 450;	59 : 400;
	61 : 150;	62 : 75;	66 : 150;	67 : 125;	82 : 125;
	84 : 600;	85 : 425;	91 : 300;	94 : 150;	98 : 850;
	99 : 150;	100 : 125;	103 : 725;	104 : 200;	105 : 425;
	108 : 150;	110 : 150;	111 : 150;	113 : 125;	114 : 150;
	119 : 150;	136 : 125;	147 : 700;
Origin  44
	1 : 1100;	2 : 550;	3 : 700;	4 : 950;	5 : 275;
	6 : 525;	7 : 525;	8 : 800;	9 : 150;	12 : 150;
	17 : 150;	21 : 150;	22 : 550;	23 : 250;	24 : 250;
	25 : 250;	26 : 425;	27 : 1350;	30 : 150;	31 : 275;
	35 : 550;	36 : 150;	38 : 275;	39 : 125;	41 : 150;
	42 : 250;	43 : 150;	45 : 550;	47 : 400;	49 : 250;
	50 : 125;	52 : 700;	54 : 525;	55 : 1250;	57 : 150;
	58 : 275;	59 : 2275;	63 : 150;	64 : 150;	65 : 150;
	72 : 125;	81 : 400;	82 : 275;	84 : 700;	85 : 550;
	87 : 150;	88 : 425;	91 : 275;	92 : 150;	94 : 125;
	96 : 125;	97 : 275;	98 : 250;	100 : 150;	101 : 150;
	103 : 550;	104 : 400;	105 : 125;	106 : 150;	109 : 275;
	114 : 150;	117 : 150;	131 : 150;	136 : 100;	141 : 275;
	146 : 150;	147 : 425;
Origin  45
	1 : 525;	2 : 225;	3 : 875;	4 : 1025;	5 : 225;
	6 : 400;	7 : 100;	8 : 75;	9 : 250;	10 : 225;
	11 : 125;	12 : 125;	21 : 125;	22 : 125;	23 : 225;
	24 : 250;	25 : 625;	26 : 250;	27 : 775;	30 : 525;
	31 : 125;	33 : 250;	35 : 250;	38 : 650;	39 : 125;
	40 : 125;	43 : 250;	44 : 100;	47 : 100;	49 : 100;
	52 : 125;	55 : 250;	58 : 250;	59 : 975;	60 : 125;
	62 : 75;	63 : 125;	67 : 225;	72 : 100;	74 : 125;
	77 : 125;	81 : 525;	82 : 225;	84 : 375;	85 : 225;
	86 : 125;	90 : 250;	95 : 125;	96 : 200;	98 : 1000;
	99 : 100;	101 : 125;	103 : 525;	104 : 325;	105 : 125;
	107 : 125;	108 : 100;	113 : 400;	114 : 125;	132 : 100;
	136 : 100;	147 : 650;
Origin  46
	1 : 350;	2 : 375;	3 : 300;	4 : 375;	5 : 300;
	6 : 375;	7 : 300;	22 : 375;	27 : 350;	33 : 725;
	34 : 350;	35 : 375;	37 : 325;	38 : 375;	41 : 375;
	47 : 350;	58 : 1100;	70 : 375;	73 : 350;	81 : 350;
	84 : 325;	98 : 300;	103 : 375;	104 : 375;	107 : 375;
	112 : 350;	113 : 375;	147 : 375;
Origin  47
	1 : 375;	2 : 975;	3 : 1000;	4 : 1400;	5 : 575;
	6 : 375;	7 : 175;	8 : 375;	9 : 400;	10 : 400;
	11 : 200;	13 : 200;	16 : 200;	18 : 200;	24 : 375;
	25 : 175;	27 : 175;	31 : 175;	35 : 200;	36 : 200;
	42 : 200;	48 : 175;	50 : 350;	52 : 400;	54 : 200;
	55 : 1000;	58 : 1200;	59 : 3150;	63 : 175;	67 : 175;
	71 : 200;	72 : 575;	73 : 150;	76 : 400;	77 : 200;
	80 : 775;	81 : 175;	82 : 400;	84 : 600;	85 : 775;
	86 : 400;	87 : 400;	98 : 175;	99 : 400;	100 : 600;
	101 : 1000;	102 : 375;	103 : 1400;	104 : 1850;	105 : 375;
	108 : 575;	112 : 200;	114 : 375;	120 : 200;	124 : 200;
	141 : 600;	144 : 175;	147 : 375;
Origin  48
	2 : 150;	4 : 300;	5 : 300;	6 : 125;	7 : 125;
	8 : 125;	10 : 150;	27 : 150;	31 : 300;	33 : 150;
	47 : 275;	49 : 150;	55 : 150;	58 : 300;	59 : 275;
	67 : 125;	70 : 150;	72 : 125;	80 : 125;	84 : 150;
	88 : 125;	97 : 775;	98 : 275;	99 : 125;	101 : 150;
	103 : 300;	104 : 275;	105 : 275;	106 : 150;	108 : 125;
	147 : 125;
Origin  49
	1 : 150;	2 : 175;	3 : 150;	4 : 125;	7 : 150;
	27 : 175;	30 : 325;	50 : 250;	52 : 175;	55 : 325;
	58 : 175;	59 : 925;	61 : 150;	67 : 150;	72 : 150;
	73 : 150;	79 : 175;	80 : 175;	81 : 175;	82 : 150;
	84 : 150;	87 : 175;	89 : 175;	98 : 150;	101 : 175;
	102 : 175;	103 : 325;	104 : 150;	107 : 150;	108 : 150;
	113 : 150;	114 : 175;	127 : 175;
Origin  50
	1 : 550;	2 : 125;	3 : 275;	4 : 650;	5 : 650;
	6 : 375;	8 : 275;	11 : 125;	19 : 125;	31 : 275;
	32 : 525;	33 : 125;	38 : 100;	39 : 100;	44 : 275;
	47 : 250;	52 : 275;	53 : 125;	54 : 125;	58 : 275;
	59 : 900;	63 : 125;	67 : 275;	70 : 125;	71 : 125;
	81 : 550;	82 : 275;	83 : 125;	84 : 250;	85 : 125;
	88 : 125;	96 : 75;	97 : 125;	98 : 100;	100 : 250;
	103 : 1075;	104 : 250;	111 : 125;	112 : 125;	114 : 250;
	117 : 125;	120 : 125;	131 : 275;	134 : 125;	147 : 550;

Origin  51
	1 : 300;	2 : 300;	3 : 125;	4 : 725;	8 : 200;
	9 : 300;	24 : 125;	27 : 300;	32 : 150;	33 : 150;
	34 : 125;	35 : 150;	49 : 125;	52 : 1150;	55 : 150;
	58 : 425;	59 : 850;	67 : 425;	77 : 150;	80 : 150;
	81 : 150;	82 : 125;	84 : 575;	85 : 300;	88 : 150;
	97 : 300;	100 : 300;	103 : 725;	104 : 850;	105 : 125;
	107 : 150;	108 : 125;	109 : 150;	114 : 150;	124 : 150;
	141 : 150;	147 : 125;
Origin  52
	1 : 125;	2 : 425;	3 : 400;	4 : 725;	5 : 125;
	6 : 425;	9 : 150;	11 : 150;	14 : 300;	19 : 300;
	22 : 125;	27 : 850;	29 : 150;	30 : 300;	31 : 150;
	33 : 125;	35 : 300;	47 : 275;	49 : 125;	50 : 100;
	54 : 125;	55 : 1300;	58 : 850;	59 : 1225;	62 : 125;
	64 : 150;	67 : 275;	68 : 150;	74 : 300;	81 : 275;
	84 : 300;	85 : 725;	87 : 150;	89 : 300;	91 : 150;
	96 : 100;	97 : 300;	98 : 150;	99 : 150;	100 : 400;
	101 : 300;	102 : 275;	103 : 1300;	104 : 825;	105 : 150;
	108 : 275;	109 : 425;	113 : 125;	114 : 425;	117 : 150;
	147 : 425;
Origin  53
	2 : 150;	4 : 300;	6 : 125;	35 : 150;	55 : 150;
	59 : 500;	63 : 150;	84 : 125;	86 : 125;	87 : 275;
	98 : 125;	103 : 575;	104 : 300;
Origin  54
	1 : 675;	2 : 375;	3 : 100;	4 : 125;	5 : 650;
	6 : 400;	7 : 100;	8 : 150;	10 : 125;	22 : 275;
	23 : 250;	24 : 100;	26 : 125;	30 : 100;	31 : 125;
	35 : 275;	38 : 125;	47 : 250;	51 : 125;	52 : 675;
	55 : 400;	58 : 400;	59 : 1100;	63 : 100;	67 : 100;
	80 : 100;	81 : 100;	85 : 500;	86 : 250;	88 : 125;
	92 : 100;	97 : 275;	98 : 250;	100 : 100;	103 : 275;
	104 : 475;	105 : 125;	135 : 125;	147 : 525;
Origin  55
	1 : 250;	2 : 125;	3 : 125;	4 : 400;	5 : 125;
	6 : 125;	7 : 100;	9 : 125;	25 : 100;	26 : 125;
	27 : 250;	29 : 125;	39 : 125;	48 : 125;	49 : 125;
	52 : 275;	53 : 125;	54 : 125;	57 : 125;	58 : 400;
	59 : 675;	61 : 275;	62 : 75;	66 : 250;	70 : 125;
	74 : 125;	81 : 125;	85 : 100;	87 : 250;	88 : 125;
	91 : 125;	95 : 125;	96 : 100;	97 : 125;	98 : 250;
	100 : 400;	101 : 125;	103 : 400;	104 : 575;	105 : 100;
	114 : 125;	147 : 400;
Origin  56
	3 : 125;	18 : 150;	52 : 300;	58 : 125;	59 : 275;
	60 : 150;	85 : 150;	98 : 150;	103 : 150;	105 : 125;

Origin  57
	1 : 125;	2 : 275;	3 : 225;	5 : 125;	6 : 275;
	8 : 75;	22 : 150;	24 : 150;	38 : 150;	41 : 150;
	47 : 125;	49 : 150;	52 : 275;	54 : 150;	55 : 425;
	58 : 525;	59 : 625;	70 : 125;	77 : 150;	83 : 150;
	84 : 150;	86 : 150;	100 : 150;	102 : 125;	103 : 425;
	104 : 275;	105 : 150;	147 : 425;
Origin  58
	2 : 150;	3 : 325;	4 : 125;	5 : 125;	6 : 125;
	7 : 450;	8 : 200;	9 : 125;	10 : 150;	17 : 150;
	18 : 125;	25 : 325;	27 : 325;	31 : 150;	33 : 150;
	36 : 150;	47 : 125;	49 : 325;	52 : 475;	54 : 125;
	55 : 2050;	57 : 150;	59 : 1325;	60 : 150;	61 : 125;
	63 : 150;	65 : 150;	67 : 150;	69 : 150;	77 : 475;
	80 : 325;	81 : 450;	84 : 325;	85 : 150;	98 : 300;
	100 : 325;	103 : 650;	104 : 100;	105 : 125;	112 : 150;
	114 : 125;	137 : 150;	147 : 625;
Origin  59
	1 : 150;	3 : 325;	4 : 500;	5 : 475;	6 : 175;
	7 : 150;	8 : 175;	9 : 325;	24 : 150;	25 : 150;
	26 : 325;	27 : 175;	30 : 325;	35 : 175;	47 : 125;
	52 : 175;	53 : 175;	54 : 175;	57 : 325;	58 : 325;
	67 : 475;	70 : 150;	81 : 175;	82 : 150;	83 : 325;
	84 : 175;	87 : 150;	88 : 175;	90 : 175;	98 : 175;
	100 : 175;	101 : 175;	103 : 175;	104 : 75;	114 : 325;
	138 : 100;
Origin  60
	2 : 175;
Origin  61
	85 : 175;
Origin  62
	1 : 1350;	2 : 1350;	3 : 275;	4 : 975;	5 : 1075;
	6 : 975;	7 : 100;	8 : 800;	9 : 825;	11 : 150;
	16 : 125;	17 : 125;	21 : 150;	22 : 150;	23 : 250;
	27 : 550;	30 : 150;	31 : 400;	33 : 275;	35 : 275;
	38 : 425;	44 : 125;	47 : 400;	48 : 125;	49 : 275;
	52 : 1525;	54 : 250;	55 : 2350;	58 : 2050;	59 : 4775;
	61 : 150;	63 : 150;	66 : 125;	67 : 125;	70 : 275;
	71 : 275;	72 : 400;	74 : 700;	76 : 150;	77 : 150;
	79 : 275;	80 : 125;	81 : 550;	83 : 150;	84 : 675;
	85 : 400;	86 : 125;	87 : 150;	90 : 150;	91 : 250;
	92 : 125;	94 : 150;	97 : 275;	98 : 1075;	99 : 125;
	100 : 125;	101 : 150;	102 : 150;	103 : 1375;	104 : 575;
	105 : 125;	107 : 125;	109 : 125;	113 : 125;	114 : 275;
	131 : 275;	135 : 275;	138 : 375;	139 : 150;	144 : 125;
	146 : 125;	147 : 275;
Origin  63
	1 : 100;	2 : 125;	3 : 250;	5 : 100;	7 : 100;
	8 : 100;	9 : 125;	10 : 100;	11 : 275;	16 : 100;
	17 : 125;	18 : 100;	25 : 125;	27 : 125;	30 : 100;
	38 : 125;	45 : 125;	49 : 100;	52 : 275;	55 : 550;
	58 : 525;	59 : 1100;	60 : 125;	62 : 100;	71 : 125;
	72 : 100;	80 : 125;	81 : 125;	82 : 125;	85 : 400;
	86 : 125;	90 : 125;	91 : 100;	103 : 675;	104 : 125;
	136 : 75;
Origin  64
	8 : 25;	19 : 300;	55 : 300;	59 : 525;	68 : 300;
	104 : 50;
Origin  65
	1 : 250;	2 : 125;	3 : 525;	4 : 125;	6 : 100;
	8 : 100;	16 : 125;	22 : 125;	23 : 100;	24 : 100;
	26 : 125;	27 : 525;	38 : 125;	41 : 125;	42 : 100;
	43 : 125;	46 : 125;	47 : 225;	52 : 125;	55 : 275;
	57 : 125;	58 : 1225;	59 : 1500;	62 : 75;	64 : 125;
	67 : 100;	72 : 250;	77 : 125;	80 : 125;	81 : 100;
	83 : 100;	84 : 125;	98 : 125;	100 : 125;	103 : 400;
	105 : 125;	112 : 125;	136 : 75;	147 : 275;
Origin  66
	1 : 700;	2 : 150;	3 : 400;	4 : 550;	5 : 250;
	6 : 400;	7 : 125;	8 : 125;	16 : 150;	22 : 150;
	24 : 125;	31 : 125;	36 : 150;	42 : 150;	52 : 150;
	54 : 275;	55 : 150;	58 : 125;	59 : 575;	69 : 150;
	73 : 100;	77 : 150;	82 : 275;	84 : 400;	85 : 125;
	87 : 150;	90 : 150;	91 : 125;	94 : 125;	98 : 250;
	100 : 550;	101 : 150;	103 : 850;	104 : 475;	106 : 250;
	107 : 125;	111 : 150;	114 : 150;	131 : 150;	147 : 125;

Origin  67
	1 : 350;	2 : 750;	3 : 150;	4 : 150;	5 : 350;
	7 : 150;	8 : 175;	9 : 375;	10 : 375;	20 : 125;
	23 : 350;	25 : 175;	27 : 550;	28 : 175;	30 : 175;
	36 : 375;	38 : 350;	43 : 175;	48 : 150;	49 : 375;
	52 : 750;	54 : 150;	55 : 550;	58 : 350;	59 : 750;
	62 : 125;	69 : 175;	70 : 175;	71 : 175;	72 : 150;
	73 : 150;	74 : 375;	80 : 375;	82 : 175;	83 : 175;
	84 : 900;	85 : 375;	86 : 150;	88 : 175;	90 : 175;
	91 : 175;	94 : 150;	95 : 150;	97 : 175;	98 : 525;
	99 : 375;	100 : 750;	101 : 550;	102 : 375;	103 : 1850;
	104 : 475;	105 : 725;	106 : 525;	111 : 175;	113 : 150;
	114 : 750;	121 : 175;	133 : 150;	141 : 175;	146 : 175;
	147 : 375;
Origin  68
	2 : 375;	3 : 350;	4 : 175;	5 : 375;	6 : 775;
	7 : 175;	8 : 325;	9 : 200;	30 : 175;	47 : 175;
	52 : 575;	55 : 375;	58 : 200;	59 : 500;	76 : 200;
	81 : 350;	82 : 175;	84 : 350;	85 : 575;	91 : 350;
	98 : 550;	100 : 550;	103 : 1150;	104 : 350;	107 : 175;
	108 : 200;	116 : 175;	146 : 175;	147 : 575;
Origin  69
	1 : 525;	2 : 375;	3 : 100;	4 : 1325;	5 : 100;
	6 : 400;	7 : 100;	8 : 400;	9 : 275;	11 : 125;
	16 : 100;	22 : 125;	24 : 250;	26 : 100;	27 : 125;
	29 : 125;	31 : 400;	33 : 275;	35 : 125;	38 : 125;
	39 : 100;	42 : 100;	47 : 250;	48 : 250;	50 : 100;
	51 : 125;	52 : 275;	55 : 375;	59 : 875;	62 : 225;
	67 : 100;	74 : 125;	76 : 100;	80 : 125;	81 : 550;
	82 : 100;	83 : 100;	84 : 275;	86 : 125;	87 : 250;
	95 : 125;	96 : 75;	97 : 275;	98 : 1050;	99 : 275;
	100 : 125;	101 : 125;	103 : 825;	104 : 300;	105 : 400;
	107 : 250;	114 : 125;	117 : 125;	131 : 125;	146 : 275;
	147 : 250;
Origin  70
	1 : 675;	2 : 1350;	3 : 425;	4 : 1350;	6 : 825;
	7 : 250;	8 : 225;	9 : 275;	14 : 150;	15 : 150;
	26 : 275;	27 : 125;	31 : 275;	34 : 150;	38 : 150;
	48 : 125;	49 : 150;	52 : 425;	54 : 125;	55 : 550;
	58 : 150;	59 : 2025;	66 : 125;	73 : 125;	74 : 275;
	80 : 400;	81 : 150;	84 : 425;	85 : 400;	87 : 125;
	91 : 150;	96 : 125;	97 : 250;	98 : 150;	100 : 700;
	103 : 550;	104 : 400;	108 : 275;	112 : 125;	114 : 975;
	147 : 275;
Origin  71
	1 : 675;	2 : 175;	3 : 200;	4 : 1150;	5 : 675;
	8 : 200;	10 : 200;	11 : 225;	27 : 200;	44 : 200;
	48 : 200;	50 : 200;	52 : 225;	59 : 225;	76 : 225;
	84 : 700;	85 : 175;	100 : 200;	101 : 225;	103 : 450;
	104 : 350;	105 : 700;
Origin  72
	1 : 125;	2 : 475;	3 : 300;	4 : 325;	5 : 150;
	6 : 300;	11 : 150;	14 : 150;	23 : 125;	31 : 150;
	38 : 150;	47 : 125;	52 : 325;	58 : 325;	59 : 425;
	84 : 125;	85 : 325;	86 : 125;	88 : 325;	98 : 150;
	100 : 150;	103 : 1100;	104 : 375;	131 : 475;	147 : 325;

Origin  73
	1 : 200;	2 : 225;	4 : 200;	6 : 200;	8 : 275;
	24 : 225;	38 : 200;	47 : 625;	52 : 425;	54 : 200;
	55 : 200;	59 : 350;	60 : 225;	76 : 200;	84 : 225;
	86 : 425;	100 : 650;	103 : 425;	104 : 50;	105 : 425;
	107 : 225;	108 : 200;	114 : 425;	141 : 225;
Origin  74
	1 : 875;	2 : 525;	3 : 125;	4 : 625;	6 : 250;
	8 : 50;	15 : 125;	16 : 125;	23 : 100;	24 : 125;
	26 : 250;	36 : 125;	38 : 125;	47 : 100;	55 : 250;
	58 : 125;	59 : 1725;	60 : 125;	67 : 100;	73 : 75;
	76 : 225;	80 : 250;	84 : 125;	87 : 100;	88 : 125;
	91 : 125;	97 : 250;	98 : 350;	99 : 125;	100 : 125;
	103 : 125;	106 : 125;	107 : 100;	113 : 100;	114 : 250;
	116 : 100;
Origin  75
	1 : 250;	59 : 50;	84 : 275;	98 : 250;
Origin  76
	1 : 600;	2 : 600;	3 : 300;	4 : 850;	5 : 125;
	6 : 450;	8 : 300;	9 : 300;	10 : 125;	15 : 150;
	27 : 275;	29 : 150;	31 : 275;	34 : 150;	39 : 150;
	47 : 125;	48 : 125;	52 : 725;	54 : 150;	55 : 725;
	58 : 600;	59 : 1125;	60 : 450;	61 : 300;	67 : 150;
	68 : 150;	69 : 300;	72 : 125;	74 : 275;	77 : 600;
	79 : 300;	80 : 275;	81 : 425;	83 : 150;	84 : 150;
	85 : 875;	87 : 300;	88 : 875;	89 : 150;	90 : 150;
	91 : 275;	94 : 125;	95 : 125;	97 : 300;	98 : 850;
	100 : 875;	101 : 300;	103 : 2500;	104 : 1275;	105 : 850;
	113 : 125;	114 : 275;	131 : 150;	139 : 125;	147 : 275;

Origin  77
	1 : 525;	2 : 400;	3 : 100;	4 : 400;	6 : 275;
	8 : 275;	9 : 125;	14 : 125;	22 : 275;	25 : 100;
	27 : 125;	47 : 375;	52 : 400;	55 : 400;	58 : 125;
	59 : 525;	62 : 75;	73 : 75;	74 : 125;	75 : 125;
	76 : 125;	79 : 125;	80 : 125;	81 : 400;	82 : 125;
	84 : 800;	85 : 125;	86 : 125;	90 : 275;	91 : 100;
	92 : 275;	98 : 100;	99 : 100;	100 : 925;	101 : 275;
	102 : 250;	103 : 925;	104 : 275;	105 : 675;	106 : 100;
	107 : 100;	114 : 275;	120 : 125;	121 : 125;	131 : 400;
	147 : 275;
Origin  78
	58 : 175;	77 : 175;	88 : 150;	97 : 175;
Origin  79
	1 : 825;	2 : 275;	3 : 250;	4 : 850;	5 : 250;
	6 : 425;	7 : 400;	8 : 700;	11 : 275;	24 : 125;
	25 : 125;	26 : 125;	47 : 400;	52 : 150;	54 : 150;
	55 : 1150;	57 : 150;	58 : 275;	59 : 575;	61 : 150;
	64 : 150;	66 : 150;	71 : 150;	72 : 125;	74 : 150;
	76 : 150;	80 : 275;	81 : 275;	82 : 125;	84 : 850;
	85 : 575;	86 : 150;	87 : 125;	88 : 150;	91 : 125;
	92 : 425;	94 : 125;	95 : 150;	97 : 150;	98 : 400;
	99 : 275;	100 : 725;	101 : 575;	102 : 125;	103 : 1575;
	104 : 850;	105 : 400;	106 : 150;	114 : 275;	117 : 150;
	131 : 150;	141 : 150;	147 : 425;
Origin  80
	1 : 225;	4 : 225;	6 : 250;	7 : 475;	8 : 250;
	9 : 225;	16 : 250;	27 : 500;	30 : 250;	44 : 225;
	47 : 475;	49 : 250;	52 : 500;	55 : 250;	58 : 250;
	59 : 500;	72 : 225;	84 : 250;	96 : 600;	97 : 250;
	98 : 600;	100 : 750;	101 : 500;	103 : 750;	104 : 600;
	107 : 225;	113 : 225;	131 : 250;
Origin  81
	1 : 125;	2 : 725;	3 : 150;	4 : 575;	5 : 125;
	6 : 425;	8 : 350;	10 : 575;	12 : 450;	14 : 125;
	16 : 150;	19 : 300;	21 : 150;	22 : 300;	24 : 425;
	25 : 275;	26 : 150;	27 : 600;	30 : 875;	31 : 450;
	35 : 300;	36 : 150;	39 : 150;	44 : 125;	48 : 125;
	49 : 575;	50 : 250;	52 : 450;	54 : 300;	55 : 150;
	58 : 450;	59 : 775;	61 : 150;	62 : 100;	66 : 450;
	67 : 150;	69 : 150;	72 : 125;	77 : 150;	80 : 125;
	82 : 600;	83 : 150;	84 : 275;	85 : 750;	86 : 300;
	87 : 450;	88 : 150;	91 : 150;	94 : 275;	95 : 450;
	97 : 300;	98 : 900;	99 : 300;	100 : 750;	102 : 750;
	103 : 1825;	104 : 750;	105 : 275;	106 : 275;	107 : 125;