<NUMBER OF ZONES> 865
<NUMBER OF NODES> 12981
<FIRST THRU NODE> 866
<NUMBER OF LINKS> 28376
<END OF METADATA> 



~ 	Init node 	Term node 	Capacity 	Length 	Free Flow Time 	B 	Power 	Speed limit 	Toll 	Type 	; 
 	1     	11000 	999999.0000000000 	    0.0000000000 	  0.0000000000 	0.0000000000 	4.000000 	0.000000 	0.000000 	0 	; 
 	1     	11007 	999999.0000000000 	    0.0000000000 	  0.0000000000 	0.0000000000 	4.000000 	0.000000 	0.000000 	0 	; 
 	1     	11704 	999999.0000000000 	    0.0000000000 	  0.0000000000 	0.0000000000 	4.000000 	0.000000 	0.000000 	0 	; 
 	1     	11708 	999999.0000000000 	    0.0000000000 	  0.0000000000 	0.0000000000 	4.000000 	0.000000 	0.000000 	0 	; 
 	1     	11717 	999999.0000000000 	    0.0000000000 	  0.0000000000 	0.0000000000 	4.000000 	0.000000 	0.000000 	0 	; 
 	2     	10892 	999999.0000000000 	    0.0000000000 	  0.0000000000 	0.0000000000 	4.000000 	0.000000 	0.000000 	0 	; 
 	2     	10895 	999999.0000000000 	    0.0000000000 	  0.0000000000 	0.0000000000 	4.000000 	0.000000 	0.000000 	0 	; 
 	2     	11707 	999999.0000000000 	    0.0000000000 	  0.0000000000 	0.0000000000 	4.000000 	0.000000 	0.000000 	0 	; 
 	2     	11711 	999999.0000000000 	    0.0000000000 	  0.0000000000 	0.0000000000 	4.000000 	0.000000 	0.000000 	0 	; 
 	2     	11714 	999999.0000000000 	    0.0000000000 	  0.0000000000 	0.0000000000 	4.000000 	0.000000 	0.000000 	0 	; 
 	3     	3336  	999999.0000000000 	    0.0000000000 	  0.0000000000 	0.0000000000 	4.000000 	0.000000 	0.000000 	0 	; 
 	3     	3361  	999999.0000000000 	    0.0000000000 	  0.0000000000 	0.0000000000 	4.000000 	0.000000 	0.000000 	0 	; 
 	3     	10256 	999999.0000000000 	    0.0000000000 	  0.0000000000 	0.0000000000 	4.000000 	0.000000 	0.000000 	0 	; 
 	3     	11293 	999999.0000000000 	    0.0000000000 	  0.0000000000 	0.0000000000 	4.000000 	0.000000 	0.000000 	0 	; 
 	3     	12313 	999999.0000000000 	    0.0000000000 	  0.0000000000 	0.0000000000 	4.000000 	0.000000 	0.000000 	0 	; 
 	4     	12363 	999999.0000000000 	    0.0000000000 	  0.0000000000 	0.0000000000 	4.000000 	0.000000 	0.000000 	0 	; 
 	4     	12685 	999999.0000000000 	    0.0000000000 	  0.0000000000 	0.0000000000 	4.000000 	0.000000 	0.000000 	0 	; 
 	4     	12690 	999999.0000000000 	    0.0000000000 	  0.0000000000 	0.0000000000 	4.000000 	0.000000 	0.000000 	0 	; 
 	4     	12799 	999999.0000000000 	    0.0000000000 	  0.0000000000 	0.0000000000 	4.000000 	0.000000 	0.000000 	0 	; 
 	4     	12800 	999999.0000000000 	    0.0000000000 	  0.0000000000 	0.0000000000 	4.000000 	0.000000 	0.000000 	0 	; 
 	5     	11696 	999999.0000000000 	    0.0000000000 	  0.0000000000 	0.0000000000 	4.000000 	0.000000 	0.000000 	0 	; 
 	5     	11697 	999999.0000000000 	    0.0000000000 	  0.0000000000 	0.0000000000 	4.000000 	0.000000 	0.000000 	0 	; 
 	5     	11698 	999999.0000000000 	    0.0000000000 	  0.0000000000 	0.0000000000 	4.000000 	0.000000 	0.000000 	0 	; 
 	5     	11714 	999999.0000000000 	    0.0000000000 	  0.0000000000 	0.0000000000 	4.000000 	0.000000 	0.000000 	0 	; 
 	5     	11725 	999999.0000000000 	    0.0000000000 	  0.0000000000 	0.0000000000 	4.000000 	0.000000 	0.000000 	0 	; 
 	6     	11016 	999999.0000000000 	    0.0000000000 	  0.0000000000 	0.0000000000 	4.000000 	0.000000 	0.000000 	0 	; 
 	6     	11017 	999999.0000000000 	    0.0000000000 	  0.0000000000 	0.0000000000 	4.000000 	0.000000 	0.000000 	0 	; 
 	6     	11695 	999999.0000000000 	    0.0000000000 	  0.0000000000 	0.0000000000 	4.000000 	0.000000 	0.000000 	0 	; 
 	6     	11717 	999999.0000000000 	    0.0000000000 	  0.0000000000 	0.0000000000 	4.000000 	0.000000 	0.000000 	0 	; 
 	6     	11724 	999999.0000000000 	    0.0000000000 	  0.0000000000 	0.0000000000 	4.000000 	0.000000 	0.000000 	0 	; 
 	7     	3365  	999999.0000000000 	    0.0000000000 	  0.0000000000 	0.0000000000 	4.000000 	0.000000 	0.000000 	0 	; 
 	7     	10957 	999999.0000000000 	    0.0000000000 	  0.0000000000 	0.0000000000 	4.000000 	0.000000 	0.000000 	0 	; 
 	7     	11375 	999999.0000000000 	    0.0000000000 	  0.0000000000 	0.0000000000 	4.000000 	0.000000 	0.000000 	0 	; 
 	7     	11744 	999999.0000000000 	    0.0000000000 	  0.0000000000 	0.0000000000 	4.000000 	0.000000 	0.000000 	0 	; 
 	7     	12515 	999999.0000000000 	    0.0000000000 	  0.0000000000 	0.0000000000 	4.000000 	0.000000 	0.000000 	0 	; 
 	8     	3361  	999999.0000000000 	    0.0000000000 	  0.0000000000 	0.0000000000 	4.000000 	0.000000 	0.000000 	0 	; 
 	8     	3362  	999999.0000000000 	    0.0000000000 	  0.0000000000 	0.0000000000 	4.000000 	0.000000 	0.000000 	0 	; 
 	8     	11016 	999999.0000000000 	    0.0000000000 	  0.0000000000 	0.0000000000 	4.000000 	0.000000 	0.000000 	0 	; 
 	8     	11017 	999999.0000000000 	    0.0000000000 	  0.0000000000 	0.0000000000 	4.000000 	0.000000 	0.000000 	0 	; 
 	8     	11724 	999999.0000000000 	    0.0000000000 	  0.0000000000 	0.0000000000 	4.000000 	0.000000 	0.000000 	0 	; 
 	9     	3352  	999999.0000000000 	    0.0000000000 	  0.0000000000 	0.0000000000 	4.000000 	0.000000 	0.000000 	0 	; 
 	9     	3353  	999999.0000000000 	    0.0000000000 	  0.0000000000 	0.0000000000 	4.000000 	0.000000 	0.000000 	0 	; 
 	9     	3357  	999999.0000000000 	    0.0000000000 	  0.0000000000 	0.0000000000 	4.000000 	0.000000 	0.000000 	0 	; 
 	9     	3358  	999999.0000000000 	    0.0000000000 	  0.0000000000 	0.0000000000 	4.000000 	0.000000 	0.000000 	0 	; 
 	9     	3359  	999999.0000000000 	    0.0000000000 	  0.0000000000 	0.0000000000 	4.000000 	0.000000 	0.000000 	0 	; 
 	10    	3353  	999999.0000000000 	    0.0000000000 	  0.0000000000 	0.0000000000 	4.000000 	0.000000 	0.000000 	0 	; 
 	10    	3354  	999999.0000000000 	    0.0000000000 	  0.0000000000 	0.0000000000 	4.000000 	0.000000 	0.000000 	0 	; 
 	10    	3355  	999999.0000000000 	    0.0000000000 	  0.0000000000 	0.0000000000 	4.000000 	0.000000 	0.000000 	0 	; 
 	10    	3356  	999999.0000000000 	    0.0000000000 	  0.0000000000 	0.0000000000 	4.000000 	0.000000 	0.000000 	0 	; 
 	10    	3359  	999999.0000000000 	    0.0000000000 	  0.0000000000 	0.0000000000 	4.000000 	0.000000 	0.000000 	0 	; 
 	11    	11018 	999999.0000000000 	    0.0000000000 	  0.0000000000 	0.0000000000 	4.000000 	0.000000 	0.000000 	0 	; 
 	11    	11019 	999999.0000000000 	    0.0000000000 	  0.0000000000 	0.0000000000 	4.000000 	0.000000 	0.000000 	0 	; 
 	11    	11020 	999999.0000000000 	    0.0000000000 	  0.0000000000 	0.0000000000 	4.000000 	0.000000 	0.000000 	0 	; 
 	11    	11022 	999999.0000000000 	    0.0000000000 	  0.0000000000 	0.0000000000 	4.000000 	0.000000 	0.000000 	0 	; 
 	11    	11028 	999999.0000000000 	    0.0000000000 	  0.0000000000 	0.0000000000 	4.000000 	0.000000 	0.000000 	0 	; 
 	12    	11181 	999999.0000000000 	    0.0000000000 	  0.0000000000 	0.0000000000 	4.000000 	0.000000 	0.000000 	0 	; 
 	12    	11276 	999999.0000000000 	    0.0000000000 	  0.0000000000 	0.0000000000 	4.000000 	0.000000 	0.000000 	0 	; 
 	12    	11278 	999999.0000000000 	    0.0000000000 	  0.0000000000 	0.0000000000 	4.000000 	0.000000 	0.000000 	0 	; 
 	12    	11279 	999999.0000000000 	    0.0000000000 	  0.0000000000 	0.0000000000 	4.000000 	0.000000 	0.000000 	0 	; 
 	12    	11286 	999999.0000000000 	    0.0000000000 	  0.0000000000 	0.0000000000 	4.000000 	0.000000 	0.000000 	0 	; 
 	13    	10956 	999999.0000000000 	    0.0000000000 	  0.0000000000 	0.0000000000 	4.000000 	0.000000 	0.000000 	0 	; 
 	13    	10961 	999999.0000000000 	    0.0000000000 	  0.0000000000 	0.0000000000 	4.000000 	0.000000 	0.000000 	0 	; 
 	13    	10963 	999999.0000000000 	    0.0000000000 	  0.0000000000 	0.0000000000 	4.000000 	0.000000 	0.000000 	0 	; 
 	13    	10965 	999999.0000000000 	    0.0000000000 	  0.0000000000 	0.0000000000 	4.000000 	0.000000 	0.000000 	0 	; 
 	13    	11712 	999999.0000000000 	    0.0000000000 	  0.0000000000 	0.0000000000 	4.000000 	0.000000 	0.000000 	0 	; 
 	14    	11106 	999999.0000000000 	    0.0000000000 	  0.0000000000 	0.0000000000 	4.000000 	0.000000 	0.000000 	0 	; 
 	14    	11110 	999999.0000000000 	    0.0000000000 	  0.0000000000 	0.0000000000 	4.000000 	0.000000 	0.000000 	0 	; 
 	14    	11114 	999999.0000000000 	    0.0000000000 	  0.0000000000 	0.0000000000 	4.000000 	0.000000 	0.000000 	0 	; 
 	14    	11121 	999999.0000000000 	    0.0000000000 	  0.0000000000 	0.0000000000 	4.000000 	0.000000 	0.000000 	0 	; 
 	14    	12522 	999999.0000000000 	    0.0000000000 	  0.0000000000 	0.0000000000 	4.000000 	0.000000 	0.000000 	0 	; 
 	15    	11108 	999999.0000000000 	    0.0000000000 	  0.0000000000 	0.0000000000 	4.000000 	0.000000 	0.000000 	0 	; 
 	15    	11118 	999999.0000000000 	    0.0000000000 	  0.0000000000 	0.0000000000 	4.000000 	0.000000 	0.000000 	0 	; 
 	15    	11175 	999999.0000000000 	    0.0000000000 	  0.0000000000 	0.0000000000 	4.000000 	0.000000 	0.000000 	0 	; 
 	15    	11176 	999999.0000000000 	    0.0000000000 	  0.0000000000 	0.0000000000 	4.000000 	0.000000 	0.000000 	0 	; 
 	15    	11178 	999999.0000000000 	    0.0000000000 	  0.0000000000 	0.0000000000 	4.000000 	0.000000 	0.000000 	0 	; 
 	16    	12516 	999999.0000000000 	    0.0000000000 	  0.0000000000 	0.0000000000 	4.000000 	0.000000 	0.000000 	0 	; 
 	16    	12529 	999999.0000000000 	    0.0000000000 	  0.0000000000 	0.0000000000 	4.000000 	0.000000 	0.000000 	0 	; 
 	16    	12532 	999999.0000000000 	    0.0000000000 	  0.0000000000 	0.0000000000 	4.000000 	0.000000 	0.000000 	0 	; 
 	16    	12540 	999999.0000000000 	    0.0000000000 	  0.0000000000 	0.0000000000 	4.000000 	0.000000 	0.000000 	0 	; 
 	16    	12543 	999999.0000000000 	    0.0000000000 	  0.0000000000 	0.0000000000 	4.000000 	0.000000 	0.000000 	0 	; 
 	17    	3354  	999999.0000000000 	    0.0000000000 	  0.0000000000 	0.0000000000 	4.000000 	0.000000 	0.000000 	0 	; 
 	17    	3355  	999999.0000000000 	    0.0000000000 	  0.0000000000 	0.0000000000 	4.000000 	0.000000 	0.000000 	0 	; 
 	17    	12644 	999999.0000000000 	    0.0000000000 	  0.0000000000 	0.0000000000 	4.000000 	0.000000 	0.000000 	0 	; 
 	17    	12645 	999999.0000000000 	    0.0000000000 	  0.0000000000 	0.0000000000 	4.000000 	0.000000 	0.000000 	0 	; 
 	17    	12648 	999999.0000000000 	    0.0000000000 	  0.0000000000 	0.0000000000 	4.000000 	0.000000 	0.000000 	0 	; 
 	18    	11160 	999999.0000000000 	    0.0000000000 	  0.0000000000 	0.0000000000 	4.000000 	0.000000 	0.000000 	0 	; 
 	18    	11166 	999999.0000000000 	    0.0000000000 	  0.0000000000 	0.0000000000 	4.000000 	0.000000 	0.000000 	0 	; 
 	18    	11167 	999999.0000000000 	    0.0000000000 	  0.0000000000 	0.0000000000 	4.000000 	0.000000 	0.000000 	0 	; 
 	18    	12520 	999999.0000000000 	    0.0000000000 	  0.0000000000 	0.0000000000 	4.000000 	0.000000 	0.000000 	0 	; 
 	18    	12521 	999999.0000000000 	    0.0000000000 	  0.0000000000 	0.0000000000 	4.000000 	0.000000 	0.000000 	0 	; 
 	19    	11067 	999999.0000000000 	    0.0000000000 	  0.0000000000 	0.0000000000 	4.000000 	0.000000 	0.000000 	0 	; 
 	19    	11078 	999999.0000000000 	    0.0000000000 	  0.0000000000 	0.0000000000 	4.000000 	0.000000 	0.000000 	0 	; 
 	19    	11332 	999999.0000000000 	    0.0000000000 	  0.0000000000 	0.0000000000 	4.000000 	0.000000 	0.000000 	0 	; 
 	19    	11333 	999999.0000000000 	    0.0000000000 	  0.0000000000 	0.0000000000 	4.000000 	0.000000 	0.000000 	0 	; 
 	19    	11340 	999999.0000000000 	    0.0000000000 	  0.0000000000 	0.0000000000 	4.000000 	0.000000 	0.000000 	0 	; 
 	20    	10149 	999999.0000000000 	    0.0000000000 	  0.0000000000 	0.0000000000 	4.000000 	0.000000 	0.000000 	0 	; 
 	20    	10152 	999999.0000000000 	    0.0000000000 	  0.0000000000 	0.0000000000 	4.000000 	0.000000 	0.000000 	0 	; 
 	20    	12527 	999999.0000000000 	    0.0000000000 	  0.0000000000 	0.0000000000 	4.000000 	0.000000 	0.000000 	0 	; 
 	20    	12854 	999999.0000000000 	    0.0000000000 	  0.0000000000 	0.0000000000 	4.000000 	0.000000 	0.000000 	0 	; 
 	20    	12857 	999999.0000000000 	    0.0000000000 	  0.0000000000 	0.0000000000 	4.000000 	0.000000 	0.000000 	0 	; 
 	21    	11350 	999999.0000000000 	    0.0000000000 	  0.0000000000 	0.0000000000 	4.000000 	0.000000 	0.000000 	0 	; 
 	21    	12614 	999999.0000000000 	    0.0000000000 	  0.0000000000 	0.0000000000 	4.000000 	0.000000 	0.000000 	0 	; 
 	21    	12615 	999999.0000000000 	    0.0000000000 	  0.0000000000 	0.0000000000 	4.000000 	0.000000 	0.000000 	0 	; 
 	21    	12616 	999999.0000000000 	    0.0000000000 	  0.0000000000 	0.0000000000 	4.000000 	0.000000 	0.000000 	0 	; 
 	21    	12617 	999999.0000000000 	    0.0000000000 	  0.0000000000 	0.0000000000 	4.000000 	0.000000 	0.000000 	0 	; 
 	22    	12564 	999999.0000000000 	    0.0000000000 	  0.0000000000 	0.0000000000 	4.000000 	0.000000 	0.000000 	0 	; 
 	22    	12568 	999999.0000000000 	    0.0000000000 	  0.0000000000 	0.0000000000 	4.000000 	0.000000 	0.000000 	0 	; 
 	22    	12575 	999999.0000000000 	    0.0000000000 	  0.0000000000 	0.0000000000 	4.000000 	0.000000 	0.000000 	0 	; 
 	22    	12576 	999999.0000000000 	    0.0000000000 	  0.0000000000 	0.0000000000 	4.000000 	0.000000 	0.000000 	0 	; 
 	22    	12577 	999999.0000000000 	    0.0000000000 	  0.0000000000 	0.0000000000 	4.000000 	0.000000 	0.000000 	0 	; 
 	23    	12596 	999999.0000000000 	    0.0000000000 	  0.0000000000 	0.0000000000 	4.000000 	0.000000 	0.000000 	0 	; 
 	23    	12606 	999999.0000000000 	    0.0000000000 	  0.0000000000 	0.0000000000 	4.000000 	0.000000 	0.000000 	0 	; 
 	23    	12608 	999999.0000000000 	    0.0000000000 	  0.0000000000 	0.0000000000 	4.000000 	0.000000 	0.000000 	0 	; 
 	23    	12619 	999999.0000000000 	    0.0000000000 	  0.0000000000 	0.0000000000 	4.000000 	0.000000 	0.000000 	0 	; 
 	23    	12620 	999999.0000000000 	    0.0000000000 	  0.0000000000 	0.0000000000 	4.000000 	0.000000 	0.000000 	0 	; 
 	24    	11103 	999999.0000000000 	    0.0000000000 	  0.0000000000 	0.0000000000 	4.000000 	0.000000 	0.000000 	0 	; 
 	24    	11327 	999999.0000000000 	    0.0000000000 	  0.0000000000 	0.0000000000 	4.000000 	0.000000 	0.000000 	0 	; 
 	24    	11328 	999999.0000000000 	    0.0000000000 	  0.0000000000 	0.0000000000 	4.000000 	0.000000 	0.000000 	0 	; 
 	24    	11333 	999999.0000000000 	    0.0000000000 	  0.0000000000 	0.0000000000 	4.000000 	0.000000 	0.000000 	0 	; 
 	24    	11341 	999999.0000000000 	    0.0000000000 	  0.0000000000 	0.0000000000 	4.000000 	0.000000 	0.000000 	0 	; 
 	25    	11353 	999999.0000000000 	    0.0000000000 	  0.0000000000 	0.0000000000 	4.000000 	0.000000 	0.000000 	0 	; 
 	25    	12232 	999999.0000000000 	    0.0000000000 	  0.0000000000 	0.0000000000 	4.000000 	0.000000 	0.000000 	0 	; 
 	25    	12233 	999999.0000000000 	    0.0000000000 	  0.0000000000 	0.0000000000 	4.000000 	0.000000 	0.000000 	0 	; 
 	25    	12241 	999999.0000000000 	    0.0000000000 	  0.0000000000 	0.0000000000 	4.000000 	0.000000 	0.000000 	0 	; 
 	25    	12244 	999999.0000000000 	    0.0000000000 	  0.0000000000 	0.0000000000 	4.000000 	0.000000 	0.000000 	0 	; 
 	26    	12777 	999999.0000000000 	    0.0000000000 	  0.0000000000 	0.0000000000 	4.000000 	0.000000 	0.000000 	0 	; 
 	26    	12780 	999999.0000000000 	    0.0000000000 	  0.0000000000 	0.0000000000 	4.000000 	0.000000 	0.000000 	0 	; 
 	26    	12910 	999999.0000000000 	    0.0000000000 	  0.0000000000 	0.0000000000 	4.000000 	0.000000 	0.000000 	0 	; 
 	26    	12915 	999999.0000000000 	    0.0000000000 	  0.0000000000 	0.0000000000 	4.000000 	0.000000 	0.000000 	0 	; 
 	26    	12916 	999999.0000000000 	    0.0000000000 	  0.0000000000 	0.0000000000 	4.000000 	0.000000 	0.000000 	0 	; 
 	27    	1003  	999999.0000000000 	    0.0000000000 	  0.0000000000 	0.0000000000 	4.000000 	0.000000 	0.000000 	0 	; 
 	27    	3825  	999999.0000000000 	    0.0000000000 	  0.0000000000 	0.0000000000 	4.000000 	0.000000 	0.000000 	0 	; 
 	27    	3826  	999999.0000000000 	    0.0000000000 	  0.0000000000 	0.0000000000 	4.000000 	0.000000 	0.000000 	0 	; 
 	27    	3828  	999999.0000000000 	    0.0000000000 	  0.0000000000 	0.0000000000 	4.000000 	0.000000 	0.000000 	0 	; 
 	27    	11860 	999999.0000000000 	    0.0000000000 	  0.0000000000 	0.0000000000 	4.000000 	0.000000 	0.000000 	0 	; 
 	28    	3827  	999999.0000000000 	    0.0000000000 	  0.0000000000 	0.0000000000 	4.000000 	0.000000 	0.000000 	0 	; 
 	28    	11219 	999999.0000000000 	    0.0000000000 	  0.0000000000 	0.0000000000 	4.000000 	0.000000 	0.000000 	0 	; 
 	28    	11221 	999999.0000000000 	    0.0000000000 	  0.0000000000 	0.0000000000 	4.000000 	0.000000 	0.000000 	0 	; 
 	28    	11224 	999999.0000000000 	    0.0000000000 	  0.0000000000 	0.0000000000 	4.000000 	0.000000 	0.000000 	0 	; 
 	28    	11227 	999999.0000000000 	    0.0000000000 	  0.0000000000 	0.0000000000 	4.000000 	0.000000 	0.000000 	0 	; 
 	29    	3827  	999999.0000000000 	    0.0000000000 	  0.0000000000 	0.0000000000 	4.000000 	0.000000 	0.000000 	0 	; 
 	29    	11219 	999999.0000000000 	    0.0000000000 	  0.0000000000 	0.0000000000 	4.000000 	0.000000 	0.000000 	0 	; 
 	29    	11221 	999999.0000000000 	    0.0000000000 	  0.0000000000 	0.0000000000 	4.000000 	0.000000 	0.000000 	0 	; 
 	29    	11224 	999999.0000000000 	    0.0000000000 	  0.0000000000 	0.0000000000 	4.000000 	0.000000 	0.000000 	0 	; 
 	29    	11227 	999999.0000000000 	    0.0000000000 	  0.0000000000 	0.0000000000 	4.000000 	0.000000 	0.000000 	0 	; 
 	30    	10242 	999999.0000000000 	    0.0000000000 	  0.0000000000 	0.0000000000 	4.000000 	0.000000 	0.000000 	0 	; 
 	30    	10243 	999999.0000000000 	    0.0000000000 	  0.0000000000 	0.0000000000 	4.000000 	0.000000 	0.000000 	0 	; 
 	30    	11203 	999999.0000000000 	    0.0000000000 	  0.0000000000 	0.0000000000 	4.000000 	0.000000 	0.000000 	0 	; 
 	30    	11207 	999999.0000000000 	    0.0000000000 	  0.0000000000 	0.0000000000 	4.000000 	0.000000 	0.000000 	0 	; 
 	30    	11216 	999999.0000000000 	    0.0000000000 	  0.0000000000 	0.0000000000 	4.000000 	0.000000 	0.000000 	0 	; 
 	31    	11864 	999999.0000000000 	    0.0000000000 	  0.0000000000 	0.0000000000 	4.000000 	0.000000 	0.000000 	0 	; 
 	31    	11866 	999999.0000000000 	    0.0000000000 	  0.0000000000 	0.0000000000 	4.000000 	0.000000 	0.000000 	0 	; 
 	31    	11867 	999999.0000000000 	    0.0000000000 	  0.0000000000 	0.0000000000 	4.000000 	0.000000 	0.000000 	0 	; 
 	31    	11868 	999999.0000000000 	    0.0000000000 	  0.0000000000 	0.0000000000 	4.000000 	0.000000 	0.000000 	0 	; 
 	31    	11869 	999999.0000000000 	    0.0000000000 	  0.0000000000 	0.0000000000 	4.000000 	0.000000 	0.000000 	0 	; 
 	32    	11298 	999999.0000000000 	    0.0000000000 	  0.0000000000 	0.0000000000 	4.000000 	0.000000 	0.000000 	0 	; 
 	32    	11361 	999999.0000000000 	    0.0000000000 	  0.0000000000 	0.0000000000 	4.000000 	0.000000 	0.000000 	0 	; 
 	32    	11362 	999999.0000000000 	    0.0000000000 	  0.0000000000 	0.0000000000 	4.000000 	0.000000 	0.000000 	0 	; 
 	32    	11364 	999999.0000000000 	    0.0000000000 	  0.0000000000 	0.0000000000 	4.000000 	0.000000 	0.000000 	0 	; 
 	32    	11365 	999999.0000000000 	    0.0000000000 	  0.0000000000 	0.0000000000 	4.000000 	0.000000 	0.000000 	0 	; 
 	33    	11281 	999999.0000000000 	    0.0000000000 	  0.0000000000 	0.0000000000 	4.000000 	0.000000 	0.000000 	0 	; 
 	33    	11285 	999999.0000000000 	    0.0000000000 	  0.0000000000 	0.0000000000 	4.000000 	0.000000 	0.000000 	0 	; 
 	33    	11288 	999999.0000000000 	    0.0000000000 	  0.0000000000 	0.0000000000 	4.000000 	0.000000 	0.000000 	0 	; 
 	33    	11817 	999999.0000000000 	    0.0000000000 	  0.0000000000 	0.0000000000 	4.000000 	0.000000 	0.000000 	0 	; 
 	33    	11819 	999999.0000000000 	    0.0000000000 	  0.0000000000 	0.0000000000 	4.000000 	0.000000 	0.000000 	0 	; 
 	34    	11298 	999999.0000000000 	    0.0000000000 	  0.0000000000 	0.0000000000 	4.000000 	0.000000 	0.000000 	0 	; 
 	34    	11301 	999999.0000000000 	    0.0000000000 	  0.0000000000 	0.0000000000 	4.000000 	0.000000 	0.000000 	0 	; 
 	34    	11311 	999999.0000000000 	    0.0000000000 	  0.0000000000 	0.0000000000 	4.000000 	0.000000 	0.000000 	0 	; 
 	34    	11358 	999999.0000000000 	    0.0000000000 	  0.0000000000 	0.0000000000 	4.000000 	0.000000 	0.000000 	0 	; 
 	34    	11823 	999999.0000000000 	    0.0000000000 	  0.0000000000 	0.0000000000 	4.000000 	0.000000 	0.000000 	0 	; 
 	35    	10238 	999999.0000000000 	    0.0000000000 	  0.0000000000 	0.0000000000 	4.000000 	0.000000 	0.000000 	0 	; 
 	35    	10248 	999999.0000000000 	    0.0000000000 	  0.0000000000 	0.0000000000 	4.000000 	0.000000 	0.000000 	0 	; 
 	35    	11254 	999999.0000000000 	    0.0000000000 	  0.0000000000 	0.0000000000 	4.000000 	0.000000 	0.000000 	0 	; 
 	35    	11259 	999999.0000000000 	    0.0000000000 	  0.0000000000 	0.0000000000 	4.000000 	0.000000 	0.000000 	0 	; 
 	35    	11260 	999999.0000000000 	    0.0000000000 	  0.0000000000 	0.0000000000 	4.000000 	0.000000 	0.000000 	0 	; 
 	36    	11314 	999999.0000000000 	    0.0000000000 	  0.0000000000 	0.0000000000 	4.000000 	0.000000 	0.000000 	0 	; 
 	36    	12871 	999999.0000000000 	    0.0000000000 	  0.0000000000 	0.0000000000 	4.000000 	0.000000 	0.000000 	0 	; 
 	36    	12912 	999999.0000000000 	    0.0000000000 	  0.0000000000 	0.0000000000 	4.000000 	0.000000 	0.000000 	0 	; 
 	36    	12913 	999999.0000000000 	    0.0000000000 	  0.0000000000 	0.0000000000 	4.000000 	0.000000 	0.000000 	0 	; 
 	36    	12918 	999999.0000000000 	    0.0000000000 	  0.0000000000 	0.0000000000 	4.000000 	0.000000 	0.000000 	0 	; 
 	37    	10625 	999999.0000000000 	    0.0000000000 	  0.0000000000 	0.0000000000 	4.000000 	0.000000 	0.000000 	0 	; 
 	37    	11065 	999999.0000000000 	    0.0000000000 	  0.0000000000 	0.0000000000 	4.000000 	0.000000 	0.000000 	0 	; 
 	37    	11271 	999999.0000000000 	    0.0000000000 	  0.0000000000 	0.0000000000 	4.000000 	0.000000 	0.000000 	0 	; 
 	37    	12801 	999999.0000000000 	    0.0000000000 	  0.0000000000 	0.0000000000 	4.000000 	0.000000 	0.000000 	0 	; 
 	37    	12815 	999999.0000000000 	    0.0000000000 	  0.0000000000 	0.0000000000 	4.000000 	0.000000 	0.000000 	0 	; 
 	38    	11059 	999999.0000000000 	    0.0000000000 	  0.0000000000 	0.0000000000 	4.000000 	0.000000 	0.000000 	0 	; 
 	38    	11060 	999999.0000000000 	    0.0000000000 	  0.0000000000 	0.0000000000 	4.000000 	0.000000 	0.000000 	0 	; 
 	38    	11061 	999999.0000000000 	    0.0000000000 	  0.0000000000 	0.0000000000 	4.000000 	0.000000 	0.000000 	0 	; 
 	38    	11066 	999999.0000000000 	    0.0000000000 	  0.0000000000 	0.0000000000 	4.000000 	0.000000 	0.000000 	0 	; 
 	38    	12314 	999999.0000000000 	    0.0000000000 	  0.0000000000 	0.0000000000 	4.000000 	0.000000 	0.000000 	0 	; 
 	39    	3493  	999999.0000000000 	    0.0000000000 	  0.0000000000 	0.0000000000 	4.000000 	0.000000 	0.000000 	0 	; 
 	39    	3497  	999999.0000000000 	    0.0000000000 	  0.0000000000 	0.0000000000 	4.000000 	0.000000 	0.000000 	0 	; 
 	39    	10626 	999999.0000000000 	    0.0000000000 	  0.0000000000 	0.0000000000 	4.000000 	0.000000 	0.000000 	0 	; 
 	39    	10629 	999999.0000000000 	    0.0000000000 	  0.0000000000 	0.0000000000 	4.000000 	0.000000 	0.000000 	0 	; 
 	39    	10631 	999999.0000000000 	    0.0000000000 	  0.0000000000 	0.0000000000 	4.000000 	0.000000 	0.000000 	0 	; 
 	40    	10624 	999999.0000000000 	    0.0000000000 	  0.0000000000 	0.0000000000 	4.000000 	0.000000 	0.000000 	0 	; 
 	40    	12499 	999999.0000000000 	    0.0000000000 	  0.0000000000 	0.0000000000 	4.000000 	0.000000 	0.000000 	0 	; 
 	40    	12500 	999999.0000000000 	    0.0000000000 	  0.0000000000 	0.0000000000 	4.000000 	0.000000 	0.000000 	0 	; 
 	40    	12501 	999999.0000000000 	    0.0000000000 	  0.0000000000 	0.0000000000 	4.000000 	0.000000 	0.000000 	0 	; 
 	40    	12511 	999999.0000000000 	    0.0000000000 	  0.0000000000 	0.0000000000 	4.000000 	0.000000 	0.000000 	0 	; 
 	41    	11059 	999999.0000000000 	    0.0000000000 	  0.0000000000 	0.0000000000 	4.000000 	0.000000 	0.000000 	0 	; 
 	41    	11060 	999999.0000000000 	    0.0000000000 	  0.0000000000 	0.0000000000 	4.000000 	0.000000 	0.000000 	0 	; 
 	41    	11061 	999999.0000000000 	    0.0000000000 	  0.0000000000 	0.0000000000 	4.000000 	0.000000 	0.000000 	0 	; 
 	41    	11066 	999999.0000000000 	    0.0000000000 	  0.0000000000 	0.0000000000 	4.000000 	0.000000 	0.000000 	0 	; 
 	41    	11294 	999999.0000000000 	    0.0000000000 	  0.0000000000 	0.0000000000 	4.000000 	0.000000 	0.000000 	0 	; 
 	42    	10242 	999999.0000000000 	    0.0000000000 	  0.0000000000 	0.0000000000 	4.000000 	0.000000 	0.000000 	0 	; 
 	42    	10243 	999999.0000000000 	    0.0000000000 	  0.0000000000 	0.0000000000 	4.000000 	0.000000 	0.000000 	0 	; 
 	42    	10250 	999999.0000000000 	    0.0000000000 	  0.0000000000 	0.0000000000 	4.000000 	0.000000 	0.000000 	0 	; 
 	42    	10251 	999999.0000000000 	    0.0000000000 	  0.0000000000 	0.0000000000 	4.000000 	0.000000 	0.000000 	0 	; 
 	42    	11203 	999999.0000000000 	    0.0000000000 	  0.0000000000 	0.0000000000 	4.000000 	0.000000 	0.000000 	0 	; 
 	43    	10235 	999999.0000000000 	    0.0000000000 	  0.0000000000 	0.0000000000 	4.000000 	0.000000 	0.000000 	0 	; 
 	43    	10237 	999999.0000000000 	    0.0000000000 	  0.0000000000 	0.0000000000 	4.000000 	0.000000 	0.000000 	0 	; 
 	43    	10238 	999999.0000000000 	    0.0000000000 	  0.0000000000 	0.0000000000 	4.000000 	0.000000 	0.000000 	0 	; 
 	43    	10245 	999999.0000000000 	    0.0000000000 	  0.0000000000 	0.0000000000 	4.000000 	0.000000 	0.000000 	0 	; 
 	43    	10246 	999999.0000000000 	    0.0000000000 	  0.0000000000 	0.0000000000 	4.000000 	0.000000 	0.000000 	0 	; 
 	44    	10872 	999999.0000000000 	    0.0000000000 	  0.0000000000 	0.0000000000 	4.000000 	0.000000 	0.000000 	0 	; 
 	44    	10874 	999999.0000000000 	    0.0000000000 	  0.0000000000 	0.0000000000 	4.000000 	0.000000 	0.000000 	0 	; 
 	44    	10875 	999999.0000000000 	    0.0000000000 	  0.0000000000 	0.0000000000 	4.000000 	0.000000 	0.000000 	0 	; 
 	44    	10876 	999999.0000000000 	    0.0000000000 	  0.0000000000 	0.0000000000 	4.000000 	0.000000 	0.000000 	0 	; 
 	44    	12143 	999999.0000000000 	    0.0000000000 	  0.0000000000 	0.0000000000 	4.000000 	0.000000 	0.000000 	0 	; 
 	45    	12457 	999999.0000000000 	    0.0000000000 	  0.0000000000 	0.0000000000 	4.000000 	0.000000 	0.000000 	0 	; 
 	45    	12458 	999999.0000000000 	    0.0000000000 	  0.0000000000 	0.0000000000 	4.000000 	0.000000 	0.000000 	0 	; 
 	45    	12466 	999999.0000000000 	    0.0000000000 	  0.0000000000 	0.0000000000 	4.000000 	0.000000 	0.000000 	0 	; 
 	45    	12469 	999999.0000000000 	    0.0000000000 	  0.0000000000 	0.0000000000 	4.000000 	0.000000 	0.000000 	0 	; 
 	45    	12483 	999999.0000000000 	    0.0000000000 	  0.0000000000 	0.0000000000 	4.000000 	0.000000 	0.000000 	0 	; 
 	46    	3512  	999999.0000000000 	    0.0000000000 	  0.0000000000 	0.0000000000 	4.000000 	0.000000 	0.000000 	0 	; 
 	46    	3513  	999999.0000000000 	    0.0000000000 	  0.0000000000 	0.0000000000 	4.000000 	0.000000 	0.000000 	0 	; 
 	46    	3514  	999999.0000000000 	    0.0000000000 	  0.0000000000 	0.0000000000 	4.000000 	0.000000 	0.000000 	0 	; 
 	46    	3515  	999999.0000000000 	    0.0000000000 	  0.0000000000 	0.0000000000 	4.000000 	0.000000 	0.000000 	0 	; 
 	46    	10292 	999999.0000000000 	    0.0000000000 	  0.0000000000 	0.0000000000 	4.000000 	0.000000 	0.000000 	0 	; 
 	47    	12460 	999999.0000000000 	    0.0000000000 	  0.0000000000 	0.0000000000 	4.000000 	0.000000 	0.000000 	0 	; 
 	47    	12461 	999999.0000000000 	    0.0000000000 	  0.0000000000 	0.0000000000 	4.000000 	0.000000 	0.000000 	0 	; 
 	47    	12463 	999999.0000000000 	    0.0000000000 	  0.0000000000 	0.0000000000 	4.000000 	0.000000 	0.000000 	0 	; 
 	47    	12481 	999999.0000000000 	    0.0000000000 	  0.0000000000 	0.0000000000 	4.000000 	0.000000 	0.000000 	0 	; 
 	47    	12491 	999999.0000000000 	    0.0000000000 	  0.0000000000 	0.0000000000 	4.000000 	0.000000 	0.000000 	0 	; 
 	48    	11036 	999999.0000000000 	    0.0000000000 	  0.0000000000 	0.0000000000 	4.000000 	0.000000 	0.000000 	0 	; 
 	48    	12368 	999999.0000000000 	    0.0000000000 	  0.0000000000 	0.0000000000 	4.000000 	0.000000 	0.000000 	0 	; 
 	48    	12371 	999999.0000000000 	    0.0000000000 	  0.0000000000 	0.0000000000 	4.000000 	0.000000 	0.000000 	0 	; 
 	48    	12372 	999999.0000000000 	    0.0000000000 	  0.0000000000 	0.0000000000 	4.000000 	0.000000 	0.000000 	0 	; 
 	48    	12385 	999999.0000000000 	    0.0000000000 	  0.0000000000 	0.0000000000 	4.000000 	0.000000 	0.000000 	0 	; 
 	49    	12367 	999999.0000000000 	    0.0000000000 	  0.0000000000 	0.0000000000 	4.000000 	0.000000 	0.000000 	0 	; 
 	49    	12377 	999999.0000000000 	    0.0000000000 	  0.0000000000 	0.0000000000 	4.000000 	0.000000 	0.000000 	0 	; 
 	49    	12459 	999999.0000000000 	    0.0000000000 	  0.0000000000 	0.0000000000 	4.000000 	0.000000 	0.000000 	0 	; 
 	49    	12464 	999999.0000000000 	    0.0000000000 	  0.0000000000 	0.0000000000 	4.000000 	0.000000 	0.000000 	0 	; 
 	49    	12465 	999999.0000000000 	    0.0000000000 	  0.0000000000 	0.0000000000 	4.000000 	0.000000 	0.000000 	0 	; 
 	50    	3376  	999999.0000000000 	    0.0000000000 	  0.0000000000 	0.0000000000 	4.000000 	0.000000 	0.000000 	0 	; 
 	50    	3377  	999999.0000000000 	    0.0000000000 	  0.0000000000 	0.0000000000 	4.000000 	0.000000 	0.000000 	0 	; 
 	50    	3499  	999999.0000000000 	    0.0000000000 	  0.0000000000 	0.0000000000 	4.000000 	0.000000 	0.000000 	0 	; 
 	50    	10290 	999999.0000000000 	    0.0000000000 	  0.0000000000 	0.0000000000 	4.000000 	0.000000 	0.000000 	0 	; 
 	50    	10291 	999999.0000000000 	    0.0000000000 	  0.0000000000 	0.0000000000 	4.000000 	0.000000 	0.000000 	0 	; 