<NUMBER OF ZONES> 865
<TOTAL OD FLOW> 168222.301999998980000
<END OF METADATA> 


Origin 1 
5 	: 	1.414000; 	7 	: 	1.199000; 	8 	: 	1.141000; 	11 	: 	1.761000; 	12 	: 	1.646000; 	
13 	: 	1.375000; 	16 	: 	1.183000; 	176 	: 	2.437000; 	177 	: 	1.117000; 	467 	: 	1.130000; 	
469 	: 	1.181000; 	479 	: 	4.887000; 	480 	: 	6.007000; 	513 	: 	1.638000; 	514 	: 	2.855000; 	

Origin 2 
3 	: 	1.038000; 	4 	: 	1.189000; 	5 	: 	6.615000; 	6 	: 	4.101000; 	7 	: 	6.900000; 	
8 	: 	5.891000; 	9 	: 	3.830000; 	10 	: 	5.458000; 	11 	: 	12.417000; 	12 	: 	9.055000; 	
13 	: 	8.775000; 	14 	: 	5.455000; 	15 	: 	7.235000; 	16 	: 	7.283000; 	17 	: 	2.275000; 	
35 	: 	1.384000; 	37 	: 	3.418000; 	38 	: 	1.811000; 	39 	: 	3.118000; 	40 	: 	1.971000; 	
41 	: 	2.050000; 	43 	: 	2.503000; 	46 	: 	3.194000; 	47 	: 	1.992000; 	48 	: 	2.658000; 	
49 	: 	2.615000; 	50 	: 	1.011000; 	51 	: 	1.412000; 	83 	: 	1.881000; 	84 	: 	2.621000; 	
86 	: 	1.552000; 	87 	: 	3.161000; 	94 	: 	5.995000; 	95 	: 	3.322000; 	99 	: 	1.292000; 	
101 	: 	1.651000; 	102 	: 	2.990000; 	104 	: 	3.863000; 	105 	: 	1.829000; 	106 	: 	1.334000; 	
107 	: 	1.997000; 	108 	: 	1.728000; 	109 	: 	1.098000; 	110 	: 	3.689000; 	111 	: 	1.588000; 	
112 	: 	2.274000; 	114 	: 	4.243000; 	115 	: 	4.719000; 	116 	: 	4.317000; 	117 	: 	2.027000; 	
118 	: 	4.392000; 	119 	: 	3.232000; 	120 	: 	5.841000; 	121 	: 	3.568000; 	122 	: 	3.483000; 	
123 	: 	3.877000; 	132 	: 	2.436000; 	133 	: 	1.979000; 	134 	: 	1.112000; 	136 	: 	1.714000; 	
137 	: 	2.844000; 	138 	: 	2.042000; 	139 	: 	4.664000; 	142 	: 	1.505000; 	143 	: 	2.778000; 	
144 	: 	2.448000; 	145 	: 	2.266000; 	146 	: 	1.688000; 	147 	: 	4.015000; 	148 	: 	1.048000; 	
150 	: 	2.060000; 	152 	: 	2.570000; 	153 	: 	2.744000; 	154 	: 	4.461000; 	161 	: 	1.515000; 	
163 	: 	1.237000; 	164 	: 	2.023000; 	169 	: 	1.020000; 	170 	: 	3.058000; 	171 	: 	1.364000; 	
172 	: 	1.278000; 	176 	: 	10.423000; 	177 	: 	4.717000; 	179 	: 	5.106000; 	180 	: 	2.431000; 	
182 	: 	1.110000; 	183 	: 	1.247000; 	184 	: 	1.961000; 	185 	: 	4.319000; 	190 	: 	3.179000; 	
192 	: 	2.486000; 	198 	: 	1.452000; 	202 	: 	1.864000; 	203 	: 	2.491000; 	205 	: 	1.835000; 	
206 	: 	1.399000; 	207 	: 	1.088000; 	217 	: 	9.010000; 	220 	: 	1.242000; 	226 	: 	5.017000; 	
227 	: 	2.715000; 	229 	: 	2.684000; 	232 	: 	1.067000; 	234 	: 	1.292000; 	236 	: 	1.234000; 	
237 	: 	1.108000; 	239 	: 	1.472000; 	244 	: 	1.200000; 	259 	: 	1.066000; 	260 	: 	1.371000; 	
262 	: 	1.509000; 	273 	: 	1.696000; 	276 	: 	1.041000; 	277 	: 	1.092000; 	278 	: 	1.443000; 	
279 	: 	1.446000; 	280 	: 	1.302000; 	282 	: 	1.033000; 	297 	: 	1.285000; 	301 	: 	1.114000; 	
304 	: 	1.361000; 	308 	: 	1.550000; 	313 	: 	1.503000; 	321 	: 	1.393000; 	333 	: 	1.631000; 	
334 	: 	1.212000; 	340 	: 	1.121000; 	343 	: 	1.075000; 	346 	: 	1.035000; 	365 	: 	1.804000; 	
368 	: 	1.113000; 	373 	: 	1.071000; 	382 	: 	1.484000; 	383 	: 	1.133000; 	392 	: 	1.024000; 	
393 	: 	1.065000; 	394 	: 	1.038000; 	401 	: 	1.223000; 	431 	: 	1.145000; 	436 	: 	1.007000; 	
438 	: 	1.430000; 	439 	: 	1.285000; 	441 	: 	1.146000; 	442 	: 	1.000000; 	445 	: 	2.494000; 	
448 	: 	1.685000; 	460 	: 	3.271000; 	464 	: 	2.217000; 	466 	: 	1.275000; 	467 	: 	2.393000; 	
468 	: 	2.771000; 	469 	: 	3.693000; 	476 	: 	2.493000; 	477 	: 	1.086000; 	478 	: 	1.528000; 	
479 	: 	1.277000; 	480 	: 	3.087000; 	483 	: 	1.299000; 	484 	: 	1.298000; 	486 	: 	1.255000; 	
487 	: 	1.225000; 	488 	: 	1.299000; 	491 	: 	1.529000; 	492 	: 	2.145000; 	493 	: 	1.098000; 	
494 	: 	1.813000; 	495 	: 	1.701000; 	497 	: 	1.895000; 	500 	: 	2.436000; 	501 	: 	1.059000; 	
503 	: 	1.487000; 	506 	: 	2.116000; 	508 	: 	2.222000; 	509 	: 	4.297000; 	510 	: 	3.636000; 	
512 	: 	1.637000; 	514 	: 	1.648000; 	516 	: 	1.536000; 	542 	: 	1.138000; 	

Origin 3 
2 	: 	1.020000; 	5 	: 	2.259000; 	6 	: 	1.119000; 	7 	: 	1.832000; 	8 	: 	1.293000; 	
9 	: 	1.091000; 	10 	: 	1.204000; 	11 	: 	2.182000; 	12 	: 	1.989000; 	13 	: 	1.945000; 	
14 	: 	1.108000; 	15 	: 	1.522000; 	16 	: 	1.953000; 	37 	: 	1.339000; 	39 	: 	1.256000; 	
43 	: 	1.855000; 	48 	: 	1.066000; 	154 	: 	1.084000; 	185 	: 	1.064000; 	460 	: 	2.167000; 	
462 	: 	1.651000; 	464 	: 	1.830000; 	466 	: 	1.027000; 	467 	: 	1.188000; 	468 	: 	1.003000; 	
469 	: 	1.427000; 	509 	: 	1.038000; 	513 	: 	2.206000; 	514 	: 	6.032000; 	515 	: 	2.645000; 	
757 	: 	1.567000; 	

Origin 4 
2 	: 	1.196000; 	5 	: 	1.112000; 	7 	: 	1.163000; 	11 	: 	2.056000; 	12 	: 	1.108000; 	
13 	: 	1.075000; 	16 	: 	1.180000; 	43 	: 	1.175000; 	752 	: 	1.012000; 	757 	: 	1.027000; 	

Origin 5 
1 	: 	1.500000; 	2 	: 	6.525000; 	3 	: 	2.250000; 	4 	: 	1.055000; 	6 	: 	1.768000; 	
7 	: 	4.182000; 	8 	: 	2.439000; 	9 	: 	2.787000; 	10 	: 	4.636000; 	11 	: 	8.627000; 	
12 	: 	4.742000; 	13 	: 	4.527000; 	14 	: 	3.258000; 	15 	: 	4.327000; 	16 	: 	3.995000; 	
17 	: 	3.819000; 	18 	: 	1.396000; 	35 	: 	1.005000; 	37 	: 	1.639000; 	38 	: 	1.332000; 	
39 	: 	1.562000; 	40 	: 	1.262000; 	43 	: 	1.352000; 	44 	: 	1.118000; 	46 	: 	2.080000; 	
47 	: 	1.219000; 	48 	: 	1.707000; 	49 	: 	1.278000; 	87 	: 	1.504000; 	90 	: 	1.113000; 	
91 	: 	1.065000; 	94 	: 	2.495000; 	95 	: 	1.997000; 	97 	: 	1.076000; 	102 	: 	1.320000; 	
104 	: 	2.001000; 	105 	: 	1.070000; 	107 	: 	1.668000; 	108 	: 	1.216000; 	110 	: 	3.176000; 	
111 	: 	1.282000; 	112 	: 	1.581000; 	114 	: 	1.494000; 	115 	: 	1.607000; 	116 	: 	1.450000; 	
118 	: 	1.475000; 	119 	: 	1.431000; 	120 	: 	2.305000; 	121 	: 	1.577000; 	122 	: 	1.244000; 	
123 	: 	2.225000; 	137 	: 	1.455000; 	139 	: 	3.939000; 	147 	: 	1.357000; 	152 	: 	1.082000; 	
153 	: 	1.037000; 	154 	: 	1.632000; 	170 	: 	1.038000; 	176 	: 	4.473000; 	177 	: 	1.086000; 	
179 	: 	7.435000; 	180 	: 	2.547000; 	185 	: 	1.372000; 	190 	: 	1.115000; 	192 	: 	1.158000; 	
194 	: 	1.135000; 	196 	: 	1.082000; 	203 	: 	1.278000; 	217 	: 	2.960000; 	226 	: 	1.531000; 	
229 	: 	1.229000; 	279 	: 	2.025000; 	460 	: 	1.400000; 	464 	: 	1.583000; 	468 	: 	1.184000; 	
469 	: 	1.366000; 	476 	: 	1.241000; 	508 	: 	1.108000; 	509 	: 	1.502000; 	510 	: 	1.249000; 	

Origin 6 
2 	: 	4.124000; 	3 	: 	1.150000; 	5 	: 	2.079000; 	7 	: 	2.393000; 	9 	: 	1.443000; 	
10 	: 	2.270000; 	11 	: 	3.921000; 	12 	: 	2.134000; 	13 	: 	2.596000; 	14 	: 	1.695000; 	
15 	: 	2.023000; 	16 	: 	1.693000; 	17 	: 	2.032000; 	37 	: 	1.012000; 	39 	: 	1.041000; 	
110 	: 	1.362000; 	139 	: 	1.383000; 	176 	: 	2.013000; 	179 	: 	3.694000; 	180 	: 	1.136000; 	
464 	: 	1.127000; 	473 	: 	2.022000; 	480 	: 	1.431000; 	

Origin 7 
1 	: 	1.271000; 	2 	: 	6.793000; 	3 	: 	1.825000; 	4 	: 	1.104000; 	5 	: 	4.200000; 	
6 	: 	2.100000; 	8 	: 	2.391000; 	9 	: 	2.982000; 	10 	: 	4.092000; 	11 	: 	6.880000; 	
12 	: 	5.428000; 	13 	: 	4.059000; 	14 	: 	2.421000; 	15 	: 	4.165000; 	16 	: 	4.622000; 	
17 	: 	2.810000; 	18 	: 	1.175000; 	26 	: 	1.047000; 	30 	: 	1.022000; 	35 	: 	1.255000; 	
37 	: 	2.074000; 	38 	: 	1.418000; 	39 	: 	1.813000; 	40 	: 	1.451000; 	41 	: 	1.047000; 	
43 	: 	1.817000; 	46 	: 	1.944000; 	47 	: 	1.133000; 	48 	: 	1.787000; 	49 	: 	1.362000; 	
87 	: 	1.408000; 	94 	: 	2.234000; 	95 	: 	1.723000; 	102 	: 	1.212000; 	104 	: 	1.896000; 	
107 	: 	1.381000; 	108 	: 	1.121000; 	110 	: 	2.757000; 	111 	: 	1.264000; 	112 	: 	1.415000; 	
114 	: 	1.628000; 	115 	: 	1.670000; 	116 	: 	1.453000; 	118 	: 	1.506000; 	119 	: 	1.542000; 	
120 	: 	2.443000; 	121 	: 	1.587000; 	122 	: 	1.400000; 	123 	: 	2.139000; 	137 	: 	1.130000; 	
139 	: 	2.662000; 	143 	: 	1.151000; 	147 	: 	1.676000; 	150 	: 	1.028000; 	152 	: 	1.217000; 	
153 	: 	1.191000; 	154 	: 	1.944000; 	170 	: 	1.258000; 	176 	: 	2.998000; 	179 	: 	4.173000; 	
185 	: 	1.730000; 	190 	: 	1.330000; 	192 	: 	1.083000; 	203 	: 	1.361000; 	205 	: 	1.088000; 	
217 	: 	2.783000; 	226 	: 	1.352000; 	273 	: 	1.070000; 	278 	: 	1.109000; 	279 	: 	1.937000; 	
283 	: 	1.385000; 	460 	: 	1.675000; 	462 	: 	1.030000; 	464 	: 	1.861000; 	468 	: 	1.056000; 	
469 	: 	1.406000; 	476 	: 	1.288000; 	508 	: 	1.161000; 	509 	: 	1.812000; 	510 	: 	1.514000; 	

Origin 8 
1 	: 	1.096000; 	2 	: 	5.923000; 	3 	: 	1.326000; 	5 	: 	2.794000; 	7 	: 	2.672000; 	
9 	: 	1.983000; 	10 	: 	2.789000; 	11 	: 	4.135000; 	12 	: 	2.814000; 	13 	: 	3.110000; 	
14 	: 	1.981000; 	15 	: 	2.673000; 	16 	: 	2.353000; 	17 	: 	2.640000; 	18 	: 	1.039000; 	
35 	: 	1.118000; 	37 	: 	1.381000; 	39 	: 	1.347000; 	43 	: 	1.440000; 	46 	: 	1.119000; 	
47 	: 	1.123000; 	48 	: 	1.005000; 	49 	: 	1.167000; 	94 	: 	1.119000; 	95 	: 	1.082000; 	
104 	: 	1.183000; 	110 	: 	1.790000; 	120 	: 	1.005000; 	139 	: 	1.518000; 	176 	: 	1.811000; 	
179 	: 	3.680000; 	279 	: 	1.037000; 	460 	: 	1.098000; 	464 	: 	1.485000; 	

Origin 9 
2 	: 	3.735000; 	3 	: 	1.091000; 	5 	: 	2.921000; 	6 	: 	1.187000; 	7 	: 	3.082000; 	
8 	: 	1.669000; 	10 	: 	1.688000; 	11 	: 	4.689000; 	12 	: 	2.052000; 	13 	: 	2.781000; 	
14 	: 	1.859000; 	15 	: 	2.440000; 	16 	: 	1.895000; 	17 	: 	1.532000; 	30 	: 	1.214000; 	
31 	: 	1.054000; 	35 	: 	1.313000; 	37 	: 	1.273000; 	39 	: 	1.068000; 	40 	: 	1.045000; 	
43 	: 	1.744000; 	48 	: 	1.151000; 	57 	: 	1.097000; 	110 	: 	1.079000; 	279 	: 	1.083000; 	
460 	: 	1.073000; 	462 	: 	1.053000; 	464 	: 	1.690000; 	528 	: 	1.029000; 	750 	: 	1.134000; 	
752 	: 	1.087000; 	757 	: 	1.179000; 	

Origin 10 
2 	: 	5.475000; 	3 	: 	1.239000; 	5 	: 	5.159000; 	6 	: 	2.257000; 	7 	: 	4.506000; 	
8 	: 	2.772000; 	9 	: 	1.924000; 	11 	: 	5.220000; 	12 	: 	3.331000; 	13 	: 	4.857000; 	
14 	: 	2.542000; 	15 	: 	4.117000; 	16 	: 	3.254000; 	17 	: 	1.702000; 	27 	: 	1.131000; 	
30 	: 	1.416000; 	31 	: 	1.669000; 	32 	: 	1.036000; 	35 	: 	2.113000; 	37 	: 	2.718000; 	
38 	: 	1.207000; 	39 	: 	2.230000; 	40 	: 	1.359000; 	41 	: 	1.304000; 	43 	: 	3.230000; 	
46 	: 	1.391000; 	47 	: 	1.182000; 	48 	: 	1.546000; 	49 	: 	1.559000; 	51 	: 	1.053000; 	
57 	: 	1.249000; 	94 	: 	1.044000; 	95 	: 	1.024000; 	104 	: 	1.319000; 	110 	: 	1.799000; 	
119 	: 	1.066000; 	120 	: 	1.503000; 	143 	: 	1.015000; 	147 	: 	1.475000; 	152 	: 	1.126000; 	
153 	: 	1.076000; 	154 	: 	1.841000; 	170 	: 	1.174000; 	179 	: 	1.037000; 	185 	: 	1.669000; 	
190 	: 	1.225000; 	278 	: 	1.252000; 	279 	: 	1.302000; 	282 	: 	1.003000; 	283 	: 	1.344000; 	
460 	: 	1.915000; 	462 	: 	1.671000; 	464 	: 	2.389000; 	469 	: 	1.206000; 	476 	: 	1.258000; 	
508 	: 	1.055000; 	509 	: 	1.658000; 	510 	: 	1.472000; 	521 	: 	1.019000; 	522 	: 	1.133000; 	
528 	: 	1.232000; 	542 	: 	1.404000; 	750 	: 	1.070000; 	757 	: 	1.477000; 	

Origin 11 
1 	: 	1.868000; 	2 	: 	12.238000; 	3 	: 	2.173000; 	4 	: 	1.959000; 	5 	: 	8.627000; 	
6 	: 	3.458000; 	7 	: 	6.857000; 	8 	: 	3.718000; 	9 	: 	4.519000; 	10 	: 	4.754000; 	
12 	: 	6.727000; 	13 	: 	8.207000; 	14 	: 	4.505000; 	15 	: 	6.844000; 	16 	: 	7.529000; 	
17 	: 	4.100000; 	18 	: 	1.936000; 	26 	: 	1.509000; 	27 	: 	1.512000; 	30 	: 	2.653000; 	
31 	: 	2.196000; 	32 	: 	1.550000; 	34 	: 	1.605000; 	35 	: 	3.084000; 	37 	: 	3.877000; 	
38 	: 	2.498000; 	39 	: 	3.478000; 	40 	: 	2.719000; 	41 	: 	1.920000; 	42 	: 	1.276000; 	
43 	: 	4.631000; 	44 	: 	1.211000; 	46 	: 	3.343000; 	47 	: 	2.231000; 	48 	: 	3.441000; 	
49 	: 	2.558000; 	50 	: 	1.420000; 	51 	: 	1.672000; 	52 	: 	2.034000; 	57 	: 	1.391000; 	
86 	: 	1.095000; 	87 	: 	2.048000; 	90 	: 	1.143000; 	94 	: 	2.597000; 	95 	: 	2.180000; 	
97 	: 	1.215000; 	99 	: 	1.196000; 	102 	: 	1.340000; 	104 	: 	2.367000; 	105 	: 	1.214000; 	
106 	: 	1.132000; 	107 	: 	1.623000; 	108 	: 	1.482000; 	109 	: 	1.138000; 	110 	: 	3.569000; 	
111 	: 	1.648000; 	112 	: 	1.498000; 	114 	: 	1.646000; 	115 	: 	1.588000; 	116 	: 	1.399000; 	
118 	: 	1.506000; 	119 	: 	1.865000; 	120 	: 	2.855000; 	121 	: 	1.732000; 	122 	: 	1.747000; 	
123 	: 	2.322000; 	137 	: 	1.036000; 	139 	: 	2.241000; 	143 	: 	1.785000; 	144 	: 	1.491000; 	
145 	: 	1.466000; 	147 	: 	2.598000; 	150 	: 	1.601000; 	152 	: 	1.901000; 	153 	: 	1.844000; 	
154 	: 	3.040000; 	161 	: 	1.095000; 	164 	: 	1.232000; 	170 	: 	1.983000; 	176 	: 	2.531000; 	
179 	: 	4.296000; 	184 	: 	1.132000; 	185 	: 	2.685000; 	190 	: 	2.074000; 	203 	: 	1.388000; 	
205 	: 	1.226000; 	242 	: 	1.123000; 	244 	: 	1.251000; 	262 	: 	1.365000; 	273 	: 	1.279000; 	
278 	: 	1.456000; 	279 	: 	2.539000; 	282 	: 	1.057000; 	283 	: 	1.440000; 	301 	: 	1.155000; 	
308 	: 	1.169000; 	333 	: 	1.315000; 	365 	: 	1.244000; 	445 	: 	1.514000; 	448 	: 	1.035000; 	
459 	: 	1.405000; 	460 	: 	3.715000; 	462 	: 	3.155000; 	463 	: 	1.464000; 	464 	: 	4.458000; 	
465 	: 	1.093000; 	466 	: 	2.075000; 	467 	: 	1.492000; 	468 	: 	2.038000; 	469 	: 	2.679000; 	
476 	: 	2.003000; 	484 	: 	1.009000; 	491 	: 	1.017000; 	492 	: 	1.275000; 	494 	: 	1.179000; 	
495 	: 	1.169000; 	497 	: 	1.133000; 	500 	: 	1.532000; 	506 	: 	1.435000; 	508 	: 	1.794000; 	
509 	: 	2.827000; 	510 	: 	2.344000; 	512 	: 	1.100000; 	514 	: 	1.426000; 	516 	: 	1.192000; 	
517 	: 	1.034000; 	518 	: 	1.059000; 	520 	: 	1.282000; 	521 	: 	1.364000; 	522 	: 	1.784000; 	
528 	: 	1.705000; 	532 	: 	1.076000; 	541 	: 	1.008000; 	542 	: 	1.743000; 	757 	: 	1.853000; 	

Origin 12 
1 	: 	1.579000; 	2 	: 	9.103000; 	3 	: 	2.039000; 	4 	: 	1.114000; 	5 	: 	5.356000; 	
6 	: 	2.133000; 	7 	: 	5.998000; 	8 	: 	2.811000; 	9 	: 	2.410000; 	10 	: 	3.349000; 	
11 	: 	7.398000; 	13 	: 	4.757000; 	14 	: 	3.546000; 	15 	: 	3.957000; 	16 	: 	3.876000; 	
17 	: 	3.870000; 	18 	: 	2.000000; 	26 	: 	1.187000; 	27 	: 	1.506000; 	30 	: 	2.022000; 	
31 	: 	2.069000; 	32 	: 	1.012000; 	34 	: 	1.185000; 	35 	: 	2.758000; 	37 	: 	2.336000; 	
38 	: 	1.155000; 	39 	: 	2.400000; 	40 	: 	1.354000; 	41 	: 	1.299000; 	43 	: 	3.483000; 	
46 	: 	1.597000; 	47 	: 	1.667000; 	48 	: 	1.701000; 	49 	: 	1.840000; 	51 	: 	1.366000; 	
52 	: 	1.860000; 	57 	: 	1.218000; 	95 	: 	1.007000; 	104 	: 	1.224000; 	110 	: 	2.165000; 	
154 	: 	1.323000; 	179 	: 	1.428000; 	185 	: 	1.023000; 	239 	: 	1.060000; 	278 	: 	1.033000; 	
279 	: 	1.620000; 	460 	: 	1.922000; 	462 	: 	2.093000; 	464 	: 	3.457000; 	466 	: 	1.320000; 	
469 	: 	1.171000; 	476 	: 	1.355000; 	509 	: 	1.189000; 	520 	: 	1.106000; 	521 	: 	1.234000; 	
542 	: 	1.326000; 	750 	: 	1.031000; 	757 	: 	2.593000; 	

Origin 13 
1 	: 	1.457000; 	2 	: 	8.650000; 	3 	: 	1.937000; 	4 	: 	1.016000; 	5 	: 	4.539000; 	
6 	: 	2.177000; 	7 	: 	4.048000; 	8 	: 	2.685000; 	9 	: 	2.654000; 	10 	: 	4.342000; 	
11 	: 	8.221000; 	12 	: 	4.167000; 	14 	: 	2.318000; 	15 	: 	2.951000; 	16 	: 	3.887000; 	
17 	: 	3.442000; 	18 	: 	1.462000; 	26 	: 	1.294000; 	37 	: 	1.390000; 	38 	: 	1.107000; 	
39 	: 	1.093000; 	43 	: 	1.048000; 	46 	: 	1.364000; 	48 	: 	1.146000; 	87 	: 	1.003000; 	
94 	: 	1.881000; 	95 	: 	1.592000; 	97 	: 	1.005000; 	102 	: 	1.096000; 	104 	: 	1.843000; 	
107 	: 	1.552000; 	108 	: 	1.083000; 	110 	: 	3.336000; 	111 	: 	1.430000; 	112 	: 	1.708000; 	
114 	: 	1.552000; 	115 	: 	1.585000; 	116 	: 	1.347000; 	118 	: 	1.298000; 	119 	: 	1.426000; 	
120 	: 	2.209000; 	121 	: 	1.508000; 	122 	: 	1.169000; 	123 	: 	2.232000; 	137 	: 	1.164000; 	
139 	: 	3.508000; 	147 	: 	1.157000; 	154 	: 	1.422000; 	176 	: 	2.187000; 	179 	: 	4.552000; 	
185 	: 	1.163000; 	192 	: 	1.341000; 	194 	: 	1.574000; 	196 	: 	1.340000; 	203 	: 	1.606000; 	
205 	: 	1.162000; 	214 	: 	1.086000; 	217 	: 	3.652000; 	220 	: 	1.404000; 	226 	: 	1.867000; 	
229 	: 	1.664000; 	271 	: 	1.003000; 	273 	: 	1.090000; 	278 	: 	1.234000; 	279 	: 	2.602000; 	
283 	: 	2.110000; 	293 	: 	1.720000; 	294 	: 	1.033000; 	297 	: 	1.533000; 	347 	: 	1.193000; 	
350 	: 	1.340000; 	476 	: 	1.108000; 	509 	: 	1.301000; 	510 	: 	1.053000; 	

Origin 14 
2 	: 	5.474000; 	3 	: 	1.139000; 	5 	: 	3.637000; 	6 	: 	1.687000; 	7 	: 	2.667000; 	
8 	: 	1.970000; 	9 	: 	2.132000; 	10 	: 	2.545000; 	11 	: 	4.949000; 	12 	: 	3.528000; 	
13 	: 	2.604000; 	15 	: 	2.280000; 	16 	: 	2.862000; 	17 	: 	1.579000; 	37 	: 	1.618000; 	
39 	: 	1.272000; 	43 	: 	1.318000; 	94 	: 	1.292000; 	95 	: 	1.064000; 	104 	: 	1.400000; 	
110 	: 	1.918000; 	112 	: 	1.001000; 	114 	: 	1.154000; 	115 	: 	1.153000; 	119 	: 	1.093000; 	
120 	: 	1.637000; 	121 	: 	1.059000; 	123 	: 	1.047000; 	139 	: 	1.485000; 	147 	: 	1.027000; 	
154 	: 	1.303000; 	176 	: 	1.095000; 	179 	: 	1.972000; 	185 	: 	1.164000; 	203 	: 	1.115000; 	
217 	: 	1.904000; 	278 	: 	1.173000; 	279 	: 	1.343000; 	283 	: 	1.517000; 	293 	: 	1.090000; 	
347 	: 	1.276000; 	350 	: 	1.105000; 	464 	: 	1.026000; 	509 	: 	1.177000; 	510 	: 	1.037000; 	

Origin 15 
1 	: 	1.041000; 	2 	: 	7.120000; 	3 	: 	1.518000; 	5 	: 	4.369000; 	6 	: 	1.679000; 	
7 	: 	4.176000; 	8 	: 	2.282000; 	9 	: 	2.342000; 	10 	: 	3.660000; 	11 	: 	6.893000; 	
12 	: 	3.429000; 	13 	: 	2.973000; 	14 	: 	2.017000; 	16 	: 	2.849000; 	17 	: 	2.559000; 	
18 	: 	1.332000; 	26 	: 	1.338000; 	37 	: 	1.173000; 	57 	: 	1.101000; 	94 	: 	1.132000; 	
95 	: 	1.069000; 	104 	: 	1.351000; 	107 	: 	1.113000; 	110 	: 	2.693000; 	111 	: 	1.234000; 	
112 	: 	1.369000; 	114 	: 	1.169000; 	115 	: 	1.160000; 	119 	: 	1.142000; 	120 	: 	1.686000; 	
121 	: 	1.109000; 	123 	: 	1.759000; 	139 	: 	2.134000; 	154 	: 	1.140000; 	179 	: 	2.171000; 	
194 	: 	1.302000; 	196 	: 	1.015000; 	203 	: 	1.397000; 	205 	: 	1.045000; 	214 	: 	1.033000; 	
217 	: 	2.761000; 	226 	: 	1.272000; 	271 	: 	1.045000; 	273 	: 	1.019000; 	278 	: 	1.259000; 	
279 	: 	2.452000; 	283 	: 	2.451000; 	290 	: 	1.232000; 	293 	: 	1.999000; 	294 	: 	1.354000; 	
297 	: 	3.690000; 	347 	: 	2.531000; 	349 	: 	1.753000; 	350 	: 	2.031000; 	509 	: 	1.043000; 	

Origin 16 
1 	: 	1.136000; 	2 	: 	7.322000; 	3 	: 	1.996000; 	4 	: 	1.187000; 	5 	: 	4.324000; 	
6 	: 	1.694000; 	7 	: 	4.951000; 	8 	: 	2.352000; 	9 	: 	2.144000; 	10 	: 	3.271000; 	
11 	: 	8.031000; 	12 	: 	3.877000; 	13 	: 	4.241000; 	14 	: 	2.876000; 	15 	: 	3.138000; 	
17 	: 	2.581000; 	18 	: 	1.077000; 	26 	: 	1.584000; 	31 	: 	1.012000; 	35 	: 	1.634000; 	
37 	: 	1.819000; 	39 	: 	1.359000; 	43 	: 	1.860000; 	55 	: 	1.482000; 	57 	: 	1.837000; 	
73 	: 	1.219000; 	104 	: 	1.214000; 	110 	: 	2.473000; 	111 	: 	1.161000; 	112 	: 	1.040000; 	
120 	: 	1.213000; 	154 	: 	1.140000; 	278 	: 	1.643000; 	279 	: 	2.232000; 	282 	: 	1.147000; 	
283 	: 	2.364000; 	347 	: 	3.360000; 	349 	: 	1.643000; 	350 	: 	1.464000; 	464 	: 	1.326000; 	
476 	: 	1.152000; 	509 	: 	1.046000; 	520 	: 	1.128000; 	541 	: 	1.085000; 	542 	: 	1.443000; 	

Origin 17 
2 	: 	2.221000; 	5 	: 	3.869000; 	6 	: 	1.917000; 	7 	: 	2.841000; 	8 	: 	2.501000; 	
9 	: 	1.536000; 	10 	: 	1.608000; 	11 	: 	4.151000; 	12 	: 	3.677000; 	13 	: 	3.485000; 	
14 	: 	1.494000; 	15 	: 	2.587000; 	16 	: 	2.469000; 	35 	: 	1.166000; 	37 	: 	1.988000; 	
39 	: 	1.441000; 	40 	: 	1.154000; 	43 	: 	2.035000; 	46 	: 	1.036000; 	48 	: 	1.198000; 	
57 	: 	1.063000; 	58 	: 	1.056000; 	104 	: 	1.030000; 	110 	: 	1.114000; 	114 	: 	1.125000; 	
115 	: 	1.026000; 	119 	: 	1.135000; 	120 	: 	1.641000; 	122 	: 	1.053000; 	123 	: 	1.214000; 	
143 	: 	1.129000; 	147 	: 	1.631000; 	152 	: 	1.035000; 	153 	: 	1.051000; 	154 	: 	1.807000; 	
170 	: 	1.201000; 	185 	: 	1.731000; 	190 	: 	1.244000; 	217 	: 	1.190000; 	278 	: 	1.054000; 	
282 	: 	1.130000; 	283 	: 	1.803000; 	347 	: 	1.966000; 	350 	: 	2.384000; 	460 	: 	1.267000; 	
464 	: 	1.410000; 	509 	: 	1.687000; 	510 	: 	1.467000; 	522 	: 	1.111000; 	528 	: 	1.090000; 	
542 	: 	1.139000; 	

Origin 18 
5 	: 	1.384000; 	7 	: 	1.166000; 	8 	: 	1.149000; 	11 	: 	1.920000; 	12 	: 	2.211000; 	
13 	: 	1.450000; 	15 	: 	1.322000; 	16 	: 	1.192000; 	37 	: 	1.116000; 	43 	: 	1.243000; 	
347 	: 	1.514000; 	349 	: 	1.038000; 	350 	: 	1.833000; 	

Origin 19 
26 	: 	1.755000; 	

Origin 20 
26 	: 	2.025000; 	

Origin 21 
23 	: 	5.390000; 	24 	: 	1.417000; 	25 	: 	1.040000; 	26 	: 	7.755000; 	31 	: 	1.278000; 	
32 	: 	1.011000; 	35 	: 	1.285000; 	37 	: 	2.075000; 	39 	: 	1.179000; 	43 	: 	2.189000; 	
48 	: 	1.212000; 	49 	: 	1.078000; 	123 	: 	1.041000; 	154 	: 	1.105000; 	185 	: 	1.091000; 	
282 	: 	1.150000; 	445 	: 	1.116000; 	460 	: 	3.344000; 	462 	: 	2.153000; 	463 	: 	4.318000; 	
464 	: 	6.421000; 	509 	: 	1.257000; 	750 	: 	1.350000; 	752 	: 	1.795000; 	757 	: 	1.122000; 	

Origin 22 
21 	: 	1.242000; 	23 	: 	2.343000; 	24 	: 	1.169000; 	26 	: 	4.402000; 	

Origin 23 
21 	: 	6.391000; 	22 	: 	2.027000; 	24 	: 	5.459000; 	25 	: 	4.076000; 	26 	: 	20.515000; 	
37 	: 	1.021000; 	55 	: 	1.050000; 	104 	: 	1.376000; 	110 	: 	2.212000; 	111 	: 	1.186000; 	
112 	: 	1.336000; 	114 	: 	1.468000; 	115 	: 	1.466000; 	119 	: 	1.329000; 	120 	: 	1.817000; 	
121 	: 	1.094000; 	123 	: 	2.303000; 	139 	: 	1.655000; 	154 	: 	1.082000; 	185 	: 	1.035000; 	
203 	: 	1.393000; 	205 	: 	1.078000; 	206 	: 	1.179000; 	211 	: 	1.026000; 	226 	: 	1.617000; 	
268 	: 	1.102000; 	270 	: 	1.064000; 	271 	: 	1.823000; 	273 	: 	1.326000; 	275 	: 	1.193000; 	
276 	: 	1.018000; 	277 	: 	1.671000; 	278 	: 	1.520000; 	279 	: 	1.386000; 	281 	: 	1.251000; 	
282 	: 	2.456000; 	297 	: 	2.491000; 	301 	: 	1.653000; 	304 	: 	1.369000; 	347 	: 	1.070000; 	
349 	: 	1.054000; 	445 	: 	1.044000; 	509 	: 	1.205000; 	

Origin 24 
21 	: 	1.922000; 	22 	: 	1.104000; 	23 	: 	5.364000; 	25 	: 	1.742000; 	26 	: 	11.792000; 	
94 	: 	1.285000; 	104 	: 	1.057000; 	110 	: 	1.255000; 	114 	: 	1.367000; 	115 	: 	1.489000; 	
116 	: 	1.021000; 	119 	: 	1.126000; 	120 	: 	1.597000; 	121 	: 	1.010000; 	123 	: 	2.546000; 	
139 	: 	1.607000; 	203 	: 	1.051000; 	217 	: 	1.049000; 	226 	: 	1.873000; 	247 	: 	1.476000; 	
278 	: 	1.269000; 	282 	: 	1.727000; 	297 	: 	2.306000; 	301 	: 	1.124000; 	509 	: 	1.025000; 	

Origin 25 
21 	: 	1.234000; 	23 	: 	3.851000; 	24 	: 	1.581000; 	26 	: 	4.793000; 	

Origin 26 
10 	: 	1.007000; 	11 	: 	1.200000; 	12 	: 	1.370000; 	13 	: 	1.067000; 	15 	: 	1.084000; 	
16 	: 	1.800000; 	19 	: 	1.257000; 	21 	: 	10.520000; 	22 	: 	4.512000; 	23 	: 	21.746000; 	
24 	: 	12.752000; 	25 	: 	5.705000; 	37 	: 	1.973000; 	38 	: 	1.086000; 	54 	: 	1.471000; 	
55 	: 	2.548000; 	56 	: 	1.175000; 	57 	: 	1.043000; 	58 	: 	1.722000; 	62 	: 	1.112000; 	
69 	: 	1.177000; 	70 	: 	1.109000; 	73 	: 	1.194000; 	74 	: 	1.141000; 	75 	: 	1.100000; 	
79 	: 	1.607000; 	80 	: 	1.476000; 	81 	: 	1.927000; 	99 	: 	1.159000; 	104 	: 	1.633000; 	
108 	: 	1.195000; 	109 	: 	1.136000; 	110 	: 	3.288000; 	111 	: 	2.022000; 	112 	: 	1.911000; 	
114 	: 	2.257000; 	115 	: 	1.884000; 	116 	: 	1.174000; 	119 	: 	2.252000; 	120 	: 	2.726000; 	
121 	: 	1.425000; 	122 	: 	1.586000; 	123 	: 	4.409000; 	143 	: 	1.337000; 	144 	: 	1.366000; 	
145 	: 	1.088000; 	147 	: 	1.939000; 	150 	: 	1.286000; 	152 	: 	1.673000; 	153 	: 	1.491000; 	
154 	: 	2.809000; 	164 	: 	1.359000; 	170 	: 	2.102000; 	175 	: 	1.930000; 	176 	: 	1.307000; 	
180 	: 	1.023000; 	184 	: 	1.318000; 	185 	: 	2.531000; 	190 	: 	2.178000; 	194 	: 	1.149000; 	
201 	: 	1.017000; 	202 	: 	1.641000; 	203 	: 	2.353000; 	204 	: 	1.731000; 	205 	: 	1.961000; 	
206 	: 	2.460000; 	207 	: 	1.828000; 	210 	: 	1.909000; 	211 	: 	1.813000; 	212 	: 	1.145000; 	
214 	: 	1.673000; 	215 	: 	1.066000; 	217 	: 	1.037000; 	232 	: 	1.027000; 	234 	: 	1.229000; 	
236 	: 	1.205000; 	239 	: 	1.556000; 	262 	: 	1.000000; 	267 	: 	1.629000; 	268 	: 	2.537000; 	
270 	: 	2.349000; 	271 	: 	3.180000; 	272 	: 	2.343000; 	273 	: 	2.782000; 	274 	: 	2.196000; 	
275 	: 	2.104000; 	276 	: 	2.980000; 	277 	: 	3.111000; 	278 	: 	3.343000; 	279 	: 	3.242000; 	
280 	: 	1.931000; 	281 	: 	1.843000; 	282 	: 	7.147000; 	283 	: 	1.585000; 	290 	: 	1.531000; 	
292 	: 	1.310000; 	293 	: 	1.525000; 	294 	: 	1.433000; 	297 	: 	6.494000; 	301 	: 	2.968000; 	
303 	: 	2.455000; 	304 	: 	2.705000; 	305 	: 	1.289000; 	321 	: 	1.433000; 	333 	: 	1.806000; 	
334 	: 	1.091000; 	335 	: 	1.067000; 	340 	: 	1.306000; 	343 	: 	1.000000; 	346 	: 	1.215000; 	
347 	: 	2.530000; 	348 	: 	2.026000; 	349 	: 	2.533000; 	350 	: 	3.188000; 	351 	: 	1.819000; 	
353 	: 	1.289000; 	356 	: 	1.098000; 	364 	: 	1.077000; 	365 	: 	1.940000; 	368 	: 	1.328000; 	
370 	: 	1.198000; 	373 	: 	1.143000; 	382 	: 	1.685000; 	383 	: 	1.135000; 	392 	: 	1.108000; 	
393 	: 	1.058000; 	394 	: 	1.111000; 	396 	: 	2.911000; 	397 	: 	3.195000; 	398 	: 	3.317000; 	
399 	: 	1.167000; 	408 	: 	1.008000; 	409 	: 	1.382000; 	410 	: 	1.282000; 	411 	: 	1.023000; 	
416 	: 	1.854000; 	417 	: 	3.060000; 	418 	: 	3.296000; 	431 	: 	1.057000; 	436 	: 	1.174000; 	
438 	: 	1.655000; 	439 	: 	1.419000; 	441 	: 	1.303000; 	442 	: 	1.009000; 	445 	: 	2.825000; 	
448 	: 	2.005000; 	467 	: 	1.330000; 	476 	: 	1.859000; 	478 	: 	1.008000; 	479 	: 	1.026000; 	
480 	: 	1.047000; 	495 	: 	1.026000; 	497 	: 	1.075000; 	500 	: 	1.196000; 	506 	: 	1.256000; 	
508 	: 	1.411000; 	509 	: 	3.158000; 	510 	: 	2.119000; 	514 	: 	1.099000; 	522 	: 	1.093000; 	
542 	: 	1.577000; 	543 	: 	1.043000; 	546 	: 	1.147000; 	

Origin 27 
10 	: 	1.011000; 	11 	: 	1.404000; 	12 	: 	1.688000; 	28 	: 	7.174000; 	29 	: 	6.837000; 	
30 	: 	19.365000; 	31 	: 	17.519000; 	32 	: 	11.954000; 	33 	: 	2.065000; 	34 	: 	8.679000; 	
35 	: 	17.558000; 	36 	: 	2.380000; 	37 	: 	8.960000; 	38 	: 	5.417000; 	39 	: 	10.331000; 	
40 	: 	8.064000; 	41 	: 	4.213000; 	42 	: 	8.837000; 	43 	: 	28.194000; 	46 	: 	2.419000; 	
47 	: 	4.276000; 	48 	: 	4.982000; 	49 	: 	4.972000; 	50 	: 	1.214000; 	51 	: 	4.816000; 	
52 	: 	5.059000; 	133 	: 	1.056000; 	139 	: 	2.858000; 	143 	: 	1.640000; 	144 	: 	1.345000; 	
145 	: 	1.370000; 	147 	: 	2.401000; 	150 	: 	1.703000; 	152 	: 	1.789000; 	153 	: 	2.229000; 	
154 	: 	2.663000; 	155 	: 	1.530000; 	161 	: 	1.093000; 	162 	: 	1.250000; 	164 	: 	1.057000; 	
170 	: 	1.799000; 	173 	: 	2.298000; 	175 	: 	2.671000; 	176 	: 	1.307000; 	177 	: 	1.062000; 	
179 	: 	1.908000; 	180 	: 	2.931000; 	185 	: 	2.318000; 	190 	: 	2.054000; 	194 	: 	1.165000; 	
196 	: 	1.399000; 	239 	: 	1.955000; 	243 	: 	1.067000; 	251 	: 	1.017000; 	262 	: 	1.004000; 	
301 	: 	1.367000; 	333 	: 	1.120000; 	401 	: 	1.325000; 	445 	: 	1.237000; 	448 	: 	1.042000; 	
457 	: 	2.382000; 	459 	: 	4.702000; 	460 	: 	4.852000; 	461 	: 	4.276000; 	462 	: 	7.892000; 	
463 	: 	4.565000; 	464 	: 	7.677000; 	465 	: 	7.429000; 	466 	: 	2.714000; 	467 	: 	1.099000; 	
469 	: 	2.158000; 	476 	: 	2.636000; 	477 	: 	1.411000; 	478 	: 	1.168000; 	479 	: 	1.225000; 	
480 	: 	1.222000; 	483 	: 	1.143000; 	484 	: 	1.297000; 	486 	: 	1.128000; 	487 	: 	1.070000; 	
488 	: 	1.153000; 	491 	: 	1.450000; 	492 	: 	1.815000; 	493 	: 	1.227000; 	494 	: 	1.371000; 	
495 	: 	1.977000; 	497 	: 	1.638000; 	500 	: 	1.867000; 	501 	: 	1.102000; 	503 	: 	1.303000; 	
508 	: 	8.210000; 	509 	: 	10.992000; 	510 	: 	4.514000; 	511 	: 	4.084000; 	512 	: 	2.018000; 	
513 	: 	1.306000; 	514 	: 	5.747000; 	515 	: 	3.501000; 	516 	: 	3.565000; 	521 	: 	1.381000; 	
522 	: 	1.344000; 	523 	: 	1.151000; 	527 	: 	1.629000; 	528 	: 	3.189000; 	537 	: 	1.053000; 	
554 	: 	1.980000; 	556 	: 	1.609000; 	557 	: 	3.232000; 	558 	: 	2.202000; 	559 	: 	2.305000; 	
560 	: 	1.822000; 	576 	: 	1.608000; 	727 	: 	1.439000; 	741 	: 	2.155000; 	750 	: 	3.370000; 	
751 	: 	2.483000; 	752 	: 	4.138000; 	753 	: 	1.418000; 	754 	: 	1.365000; 	755 	: 	2.674000; 	
756 	: 	2.493000; 	757 	: 	4.425000; 	758 	: 	1.298000; 	759 	: 	2.919000; 	760 	: 	2.349000; 	
762 	: 	1.540000; 	763 	: 	1.890000; 	766 	: 	2.038000; 	770 	: 	2.838000; 	771 	: 	1.113000; 	
778 	: 	2.038000; 	

Origin 28 
27 	: 	8.003000; 	29 	: 	3.024000; 	30 	: 	5.896000; 	31 	: 	9.954000; 	32 	: 	4.108000; 	
34 	: 	2.510000; 	35 	: 	7.441000; 	37 	: 	4.846000; 	38 	: 	1.793000; 	39 	: 	5.654000; 	
40 	: 	2.853000; 	41 	: 	2.491000; 	42 	: 	2.521000; 	43 	: 	14.333000; 	46 	: 	1.400000; 	
47 	: 	1.780000; 	48 	: 	2.609000; 	49 	: 	2.058000; 	51 	: 	1.860000; 	52 	: 	1.725000; 	
147 	: 	1.270000; 	153 	: 	1.076000; 	154 	: 	1.437000; 	175 	: 	1.287000; 	185 	: 	1.499000; 	
190 	: 	1.075000; 	459 	: 	2.764000; 	460 	: 	3.119000; 	461 	: 	2.244000; 	462 	: 	4.374000; 	
463 	: 	1.805000; 	464 	: 	3.775000; 	465 	: 	2.938000; 	466 	: 	1.784000; 	467 	: 	1.196000; 	
469 	: 	1.353000; 	476 	: 	1.421000; 	492 	: 	1.113000; 	500 	: 	1.067000; 	508 	: 	4.575000; 	
509 	: 	8.475000; 	510 	: 	3.948000; 	511 	: 	2.698000; 	512 	: 	1.894000; 	513 	: 	1.244000; 	
514 	: 	3.437000; 	515 	: 	2.732000; 	516 	: 	2.425000; 	528 	: 	1.406000; 	554 	: 	1.140000; 	
557 	: 	1.285000; 	558 	: 	1.255000; 	750 	: 	2.462000; 	751 	: 	1.057000; 	752 	: 	2.576000; 	
755 	: 	1.067000; 	756 	: 	1.619000; 	757 	: 	2.328000; 	759 	: 	1.209000; 	760 	: 	1.535000; 	
763 	: 	1.203000; 	

Origin 29 
27 	: 	6.820000; 	28 	: 	2.766000; 	30 	: 	7.956000; 	31 	: 	8.432000; 	32 	: 	5.149000; 	
34 	: 	3.717000; 	35 	: 	7.201000; 	36 	: 	1.041000; 	37 	: 	3.808000; 	38 	: 	2.661000; 	
39 	: 	4.658000; 	40 	: 	3.896000; 	41 	: 	1.879000; 	42 	: 	3.675000; 	43 	: 	11.709000; 	
46 	: 	1.308000; 	47 	: 	2.373000; 	48 	: 	2.316000; 	49 	: 	2.535000; 	51 	: 	2.451000; 	
52 	: 	2.231000; 	139 	: 	1.228000; 	147 	: 	1.097000; 	154 	: 	1.100000; 	175 	: 	1.195000; 	
180 	: 	1.233000; 	185 	: 	1.071000; 	457 	: 	1.232000; 	459 	: 	2.469000; 	460 	: 	2.436000; 	
461 	: 	2.054000; 	462 	: 	3.690000; 	463 	: 	1.616000; 	464 	: 	3.570000; 	465 	: 	2.659000; 	
466 	: 	1.639000; 	467 	: 	1.055000; 	469 	: 	1.286000; 	476 	: 	1.043000; 	508 	: 	4.248000; 	
509 	: 	7.589000; 	510 	: 	2.853000; 	511 	: 	2.702000; 	512 	: 	1.374000; 	513 	: 	1.115000; 	
514 	: 	3.475000; 	515 	: 	2.440000; 	516 	: 	2.197000; 	517 	: 	1.171000; 	557 	: 	1.400000; 	
750 	: 	1.433000; 	751 	: 	1.070000; 	752 	: 	1.490000; 	755 	: 	1.138000; 	757 	: 	2.490000; 	
759 	: 	1.310000; 	766 	: 	1.114000; 	770 	: 	1.292000; 	

Origin 30 
8 	: 	1.011000; 	9 	: 	1.076000; 	10 	: 	1.529000; 	11 	: 	2.473000; 	12 	: 	2.761000; 	
16 	: 	1.142000; 	27 	: 	19.751000; 	28 	: 	5.580000; 	29 	: 	7.904000; 	31 	: 	18.180000; 	
32 	: 	9.137000; 	33 	: 	2.317000; 	34 	: 	6.705000; 	35 	: 	16.143000; 	36 	: 	1.601000; 	
37 	: 	11.187000; 	38 	: 	5.347000; 	39 	: 	13.048000; 	40 	: 	7.603000; 	41 	: 	6.097000; 	
42 	: 	4.075000; 	43 	: 	20.678000; 	44 	: 	1.392000; 	46 	: 	4.544000; 	47 	: 	5.126000; 	
48 	: 	6.820000; 	49 	: 	5.466000; 	50 	: 	2.391000; 	51 	: 	4.618000; 	52 	: 	4.869000; 	
86 	: 	1.308000; 	87 	: 	1.109000; 	90 	: 	1.263000; 	139 	: 	2.129000; 	143 	: 	1.557000; 	