<NUMBER OF ZONES> 36
<NUMBER OF NODES> 398
<FIRST THRU NODE> 37
<NUMBER OF LINKS> 871
<END OF METADATA> 



~ 	Init node 	Term node 	Capacity 	Length 	Free Flow Time 	B 	Power 	Speed limit 	Toll 	Type 	; 
 	1   	303 	999999.0000000000 	  0.0000000000 	 0.0000000000 	0.0000000000 	4.000000 	0.000000 	0.000000 	0 	; 
 	1   	304 	999999.0000000000 	  0.0000000000 	 0.0000000000 	0.0000000000 	4.000000 	0.000000 	0.000000 	0 	; 
 	1   	306 	999999.0000000000 	  0.0000000000 	 0.0000000000 	0.0000000000 	4.000000 	0.000000 	0.000000 	0 	; 
 	1   	307 	999999.0000000000 	  0.0000000000 	 0.0000000000 	0.0000000000 	4.000000 	0.000000 	0.000000 	0 	; 
 	2   	253 	999999.0000000000 	  0.0000000000 	 0.0000000000 	0.0000000000 	4.000000 	0.000000 	0.000000 	0 	; 
 	2   	255 	999999.0000000000 	  0.0000000000 	 0.0000000000 	0.0000000000 	4.000000 	0.000000 	0.000000 	0 	; 
 	2   	256 	999999.0000000000 	  0.0000000000 	 0.0000000000 	0.0000000000 	4.000000 	0.000000 	0.000000 	0 	; 
 	2   	272 	999999.0000000000 	  0.0000000000 	 0.0000000000 	0.0000000000 	4.000000 	0.000000 	0.000000 	0 	; 
 	3   	258 	999999.0000000000 	  0.0000000000 	 0.0000000000 	0.0000000000 	4.000000 	0.000000 	0.000000 	0 	; 
 	3   	259 	999999.0000000000 	  0.0000000000 	 0.0000000000 	0.0000000000 	4.000000 	0.000000 	0.000000 	0 	; 
 	3   	260 	999999.0000000000 	  0.0000000000 	 0.0000000000 	0.0000000000 	4.000000 	0.000000 	0.000000 	0 	; 
 	3   	261 	999999.0000000000 	  0.0000000000 	 0.0000000000 	0.0000000000 	4.000000 	0.000000 	0.000000 	0 	; 
 	4   	226 	999999.0000000000 	  0.0000000000 	 0.0000000000 	0.0000000000 	4.000000 	0.000000 	0.000000 	0 	; 
 	4   	231 	999999.0000000000 	  0.0000000000 	 0.0000000000 	0.0000000000 	4.000000 	0.000000 	0.000000 	0 	; 
 	4   	232 	999999.0000000000 	  0.0000000000 	 0.0000000000 	0.0000000000 	4.000000 	0.000000 	0.000000 	0 	; 
 	4   	263 	999999.0000000000 	  0.0000000000 	 0.0000000000 	0.0000000000 	4.000000 	0.000000 	0.000000 	0 	; 
 	5   	254 	999999.0000000000 	  0.0000000000 	 0.0000000000 	0.0000000000 	4.000000 	0.000000 	0.000000 	0 	; 
 	5   	255 	999999.0000000000 	  0.0000000000 	 0.0000000000 	0.0000000000 	4.000000 	0.000000 	0.000000 	0 	; 
 	5   	352 	999999.0000000000 	  0.0000000000 	 0.0000000000 	0.0000000000 	4.000000 	0.000000 	0.000000 	0 	; 
 	5   	353 	999999.0000000000 	  0.0000000000 	 0.0000000000 	0.0000000000 	4.000000 	0.000000 	0.000000 	0 	; 
 	6   	196 	999999.0000000000 	  0.0000000000 	 0.0000000000 	0.0000000000 	4.000000 	0.000000 	0.000000 	0 	; 
 	6   	223 	999999.0000000000 	  0.0000000000 	 0.0000000000 	0.0000000000 	4.000000 	0.000000 	0.000000 	0 	; 
 	6   	264 	999999.0000000000 	  0.0000000000 	 0.0000000000 	0.0000000000 	4.000000 	0.000000 	0.000000 	0 	; 
 	6   	295 	999999.0000000000 	  0.0000000000 	 0.0000000000 	0.0000000000 	4.000000 	0.000000 	0.000000 	0 	; 
 	7   	50  	999999.0000000000 	  0.0000000000 	 0.0000000000 	0.0000000000 	4.000000 	0.000000 	0.000000 	0 	; 
 	7   	51  	999999.0000000000 	  0.0000000000 	 0.0000000000 	0.0000000000 	4.000000 	0.000000 	0.000000 	0 	; 
 	7   	55  	999999.0000000000 	  0.0000000000 	 0.0000000000 	0.0000000000 	4.000000 	0.000000 	0.000000 	0 	; 
 	7   	59  	999999.0000000000 	  0.0000000000 	 0.0000000000 	0.0000000000 	4.000000 	0.000000 	0.000000 	0 	; 
 	8   	359 	999999.0000000000 	  0.0000000000 	 0.0000000000 	0.0000000000 	4.000000 	0.000000 	0.000000 	0 	; 
 	8   	360 	999999.0000000000 	  0.0000000000 	 0.0000000000 	0.0000000000 	4.000000 	0.000000 	0.000000 	0 	; 
 	8   	361 	999999.0000000000 	  0.0000000000 	 0.0000000000 	0.0000000000 	4.000000 	0.000000 	0.000000 	0 	; 
 	8   	364 	999999.0000000000 	  0.0000000000 	 0.0000000000 	0.0000000000 	4.000000 	0.000000 	0.000000 	0 	; 
 	9   	158 	999999.0000000000 	  0.0000000000 	 0.0000000000 	0.0000000000 	4.000000 	0.000000 	0.000000 	0 	; 
 	9   	168 	999999.0000000000 	  0.0000000000 	 0.0000000000 	0.0000000000 	4.000000 	0.000000 	0.000000 	0 	; 
 	9   	176 	999999.0000000000 	  0.0000000000 	 0.0000000000 	0.0000000000 	4.000000 	0.000000 	0.000000 	0 	; 
 	9   	362 	999999.0000000000 	  0.0000000000 	 0.0000000000 	0.0000000000 	4.000000 	0.000000 	0.000000 	0 	; 
 	10  	140 	999999.0000000000 	  0.0000000000 	 0.0000000000 	0.0000000000 	4.000000 	0.000000 	0.000000 	0 	; 
 	10  	142 	999999.0000000000 	  0.0000000000 	 0.0000000000 	0.0000000000 	4.000000 	0.000000 	0.000000 	0 	; 
 	10  	144 	999999.0000000000 	  0.0000000000 	 0.0000000000 	0.0000000000 	4.000000 	0.000000 	0.000000 	0 	; 
 	10  	146 	999999.0000000000 	  0.0000000000 	 0.0000000000 	0.0000000000 	4.000000 	0.000000 	0.000000 	0 	; 
 	11  	63  	999999.0000000000 	  0.0000000000 	 0.0000000000 	0.0000000000 	4.000000 	0.000000 	0.000000 	0 	; 
 	11  	275 	999999.0000000000 	  0.0000000000 	 0.0000000000 	0.0000000000 	4.000000 	0.000000 	0.000000 	0 	; 
 	11  	279 	999999.0000000000 	  0.0000000000 	 0.0000000000 	0.0000000000 	4.000000 	0.000000 	0.000000 	0 	; 
 	11  	283 	999999.0000000000 	  0.0000000000 	 0.0000000000 	0.0000000000 	4.000000 	0.000000 	0.000000 	0 	; 
 	12  	112 	999999.0000000000 	  0.0000000000 	 0.0000000000 	0.0000000000 	4.000000 	0.000000 	0.000000 	0 	; 
 	12  	114 	999999.0000000000 	  0.0000000000 	 0.0000000000 	0.0000000000 	4.000000 	0.000000 	0.000000 	0 	; 
 	12  	120 	999999.0000000000 	  0.0000000000 	 0.0000000000 	0.0000000000 	4.000000 	0.000000 	0.000000 	0 	; 
 	12  	121 	999999.0000000000 	  0.0000000000 	 0.0000000000 	0.0000000000 	4.000000 	0.000000 	0.000000 	0 	; 
 	13  	166 	999999.0000000000 	  0.0000000000 	 0.0000000000 	0.0000000000 	4.000000 	0.000000 	0.000000 	0 	; 
 	13  	201 	999999.0000000000 	  0.0000000000 	 0.0000000000 	0.0000000000 	4.000000 	0.000000 	0.000000 	0 	; 
 	13  	203 	999999.0000000000 	  0.0000000000 	 0.0000000000 	0.0000000000 	4.000000 	0.000000 	0.000000 	0 	; 
 	13  	398 	999999.0000000000 	  0.0000000000 	 0.0000000000 	0.0000000000 	4.000000 	0.000000 	0.000000 	0 	; 
 	14  	128 	999999.0000000000 	  0.0000000000 	 0.0000000000 	0.0000000000 	4.000000 	0.000000 	0.000000 	0 	; 
 	14  	129 	999999.0000000000 	  0.0000000000 	 0.0000000000 	0.0000000000 	4.000000 	0.000000 	0.000000 	0 	; 
 	14  	130 	999999.0000000000 	  0.0000000000 	 0.0000000000 	0.0000000000 	4.000000 	0.000000 	0.000000 	0 	; 
 	14  	133 	999999.0000000000 	  0.0000000000 	 0.0000000000 	0.0000000000 	4.000000 	0.000000 	0.000000 	0 	; 
 	15  	165 	999999.0000000000 	  0.0000000000 	 0.0000000000 	0.0000000000 	4.000000 	0.000000 	0.000000 	0 	; 
 	15  	175 	999999.0000000000 	  0.0000000000 	 0.0000000000 	0.0000000000 	4.000000 	0.000000 	0.000000 	0 	; 
 	15  	177 	999999.0000000000 	  0.0000000000 	 0.0000000000 	0.0000000000 	4.000000 	0.000000 	0.000000 	0 	; 
 	15  	191 	999999.0000000000 	  0.0000000000 	 0.0000000000 	0.0000000000 	4.000000 	0.000000 	0.000000 	0 	; 
 	16  	75  	999999.0000000000 	  0.0000000000 	 0.0000000000 	0.0000000000 	4.000000 	0.000000 	0.000000 	0 	; 
 	16  	241 	999999.0000000000 	  0.0000000000 	 0.0000000000 	0.0000000000 	4.000000 	0.000000 	0.000000 	0 	; 
 	16  	246 	999999.0000000000 	  0.0000000000 	 0.0000000000 	0.0000000000 	4.000000 	0.000000 	0.000000 	0 	; 
 	16  	317 	999999.0000000000 	  0.0000000000 	 0.0000000000 	0.0000000000 	4.000000 	0.000000 	0.000000 	0 	; 
 	17  	70  	999999.0000000000 	  0.0000000000 	 0.0000000000 	0.0000000000 	4.000000 	0.000000 	0.000000 	0 	; 
 	17  	251 	999999.0000000000 	  0.0000000000 	 0.0000000000 	0.0000000000 	4.000000 	0.000000 	0.000000 	0 	; 
 	17  	270 	999999.0000000000 	  0.0000000000 	 0.0000000000 	0.0000000000 	4.000000 	0.000000 	0.000000 	0 	; 
 	17  	273 	999999.0000000000 	  0.0000000000 	 0.0000000000 	0.0000000000 	4.000000 	0.000000 	0.000000 	0 	; 
 	18  	70  	999999.0000000000 	  0.0000000000 	 0.0000000000 	0.0000000000 	4.000000 	0.000000 	0.000000 	0 	; 
 	18  	73  	999999.0000000000 	  0.0000000000 	 0.0000000000 	0.0000000000 	4.000000 	0.000000 	0.000000 	0 	; 
 	18  	75  	999999.0000000000 	  0.0000000000 	 0.0000000000 	0.0000000000 	4.000000 	0.000000 	0.000000 	0 	; 
 	18  	241 	999999.0000000000 	  0.0000000000 	 0.0000000000 	0.0000000000 	4.000000 	0.000000 	0.000000 	0 	; 
 	19  	287 	999999.0000000000 	  0.0000000000 	 0.0000000000 	0.0000000000 	4.000000 	0.000000 	0.000000 	0 	; 
 	19  	291 	999999.0000000000 	  0.0000000000 	 0.0000000000 	0.0000000000 	4.000000 	0.000000 	0.000000 	0 	; 
 	19  	292 	999999.0000000000 	  0.0000000000 	 0.0000000000 	0.0000000000 	4.000000 	0.000000 	0.000000 	0 	; 
 	19  	357 	999999.0000000000 	  0.0000000000 	 0.0000000000 	0.0000000000 	4.000000 	0.000000 	0.000000 	0 	; 
 	20  	217 	999999.0000000000 	  0.0000000000 	 0.0000000000 	0.0000000000 	4.000000 	0.000000 	0.000000 	0 	; 
 	20  	220 	999999.0000000000 	  0.0000000000 	 0.0000000000 	0.0000000000 	4.000000 	0.000000 	0.000000 	0 	; 
 	20  	221 	999999.0000000000 	  0.0000000000 	 0.0000000000 	0.0000000000 	4.000000 	0.000000 	0.000000 	0 	; 
 	20  	238 	999999.0000000000 	  0.0000000000 	 0.0000000000 	0.0000000000 	4.000000 	0.000000 	0.000000 	0 	; 
 	21  	312 	999999.0000000000 	  0.0000000000 	 0.0000000000 	0.0000000000 	4.000000 	0.000000 	0.000000 	0 	; 
 	21  	372 	999999.0000000000 	  0.0000000000 	 0.0000000000 	0.0000000000 	4.000000 	0.000000 	0.000000 	0 	; 
 	21  	373 	999999.0000000000 	  0.0000000000 	 0.0000000000 	0.0000000000 	4.000000 	0.000000 	0.000000 	0 	; 
 	21  	375 	999999.0000000000 	  0.0000000000 	 0.0000000000 	0.0000000000 	4.000000 	0.000000 	0.000000 	0 	; 
 	22  	228 	999999.0000000000 	  0.0000000000 	 0.0000000000 	0.0000000000 	4.000000 	0.000000 	0.000000 	0 	; 
 	22  	285 	999999.0000000000 	  0.0000000000 	 0.0000000000 	0.0000000000 	4.000000 	0.000000 	0.000000 	0 	; 
 	22  	286 	999999.0000000000 	  0.0000000000 	 0.0000000000 	0.0000000000 	4.000000 	0.000000 	0.000000 	0 	; 
 	22  	287 	999999.0000000000 	  0.0000000000 	 0.0000000000 	0.0000000000 	4.000000 	0.000000 	0.000000 	0 	; 
 	23  	222 	999999.0000000000 	  0.0000000000 	 0.0000000000 	0.0000000000 	4.000000 	0.000000 	0.000000 	0 	; 
 	23  	224 	999999.0000000000 	  0.0000000000 	 0.0000000000 	0.0000000000 	4.000000 	0.000000 	0.000000 	0 	; 
 	23  	226 	999999.0000000000 	  0.0000000000 	 0.0000000000 	0.0000000000 	4.000000 	0.000000 	0.000000 	0 	; 
 	23  	231 	999999.0000000000 	  0.0000000000 	 0.0000000000 	0.0000000000 	4.000000 	0.000000 	0.000000 	0 	; 
 	24  	317 	999999.0000000000 	  0.0000000000 	 0.0000000000 	0.0000000000 	4.000000 	0.000000 	0.000000 	0 	; 
 	24  	379 	999999.0000000000 	  0.0000000000 	 0.0000000000 	0.0000000000 	4.000000 	0.000000 	0.000000 	0 	; 
 	24  	383 	999999.0000000000 	  0.0000000000 	 0.0000000000 	0.0000000000 	4.000000 	0.000000 	0.000000 	0 	; 
 	24  	385 	999999.0000000000 	  0.0000000000 	 0.0000000000 	0.0000000000 	4.000000 	0.000000 	0.000000 	0 	; 
 	25  	315 	999999.0000000000 	  0.0000000000 	 0.0000000000 	0.0000000000 	4.000000 	0.000000 	0.000000 	0 	; 
 	25  	331 	999999.0000000000 	  0.0000000000 	 0.0000000000 	0.0000000000 	4.000000 	0.000000 	0.000000 	0 	; 
 	25  	332 	999999.0000000000 	  0.0000000000 	 0.0000000000 	0.0000000000 	4.000000 	0.000000 	0.000000 	0 	; 
 	25  	334 	999999.0000000000 	  0.0000000000 	 0.0000000000 	0.0000000000 	4.000000 	0.000000 	0.000000 	0 	; 
 	26  	327 	999999.0000000000 	  0.0000000000 	 0.0000000000 	0.0000000000 	4.000000 	0.000000 	0.000000 	0 	; 
 	26  	328 	999999.0000000000 	  0.0000000000 	 0.0000000000 	0.0000000000 	4.000000 	0.000000 	0.000000 	0 	; 
 	26  	332 	999999.0000000000 	  0.0000000000 	 0.0000000000 	0.0000000000 	4.000000 	0.000000 	0.000000 	0 	; 
 	26  	335 	999999.0000000000 	  0.0000000000 	 0.0000000000 	0.0000000000 	4.000000 	0.000000 	0.000000 	0 	; 
 	27  	68  	999999.0000000000 	  0.0000000000 	 0.0000000000 	0.0000000000 	4.000000 	0.000000 	0.000000 	0 	; 
 	27  	78  	999999.0000000000 	  0.0000000000 	 0.0000000000 	0.0000000000 	4.000000 	0.000000 	0.000000 	0 	; 
 	27  	276 	999999.0000000000 	  0.0000000000 	 0.0000000000 	0.0000000000 	4.000000 	0.000000 	0.000000 	0 	; 
 	27  	280 	999999.0000000000 	  0.0000000000 	 0.0000000000 	0.0000000000 	4.000000 	0.000000 	0.000000 	0 	; 
 	28  	210 	999999.0000000000 	  0.0000000000 	 0.0000000000 	0.0000000000 	4.000000 	0.000000 	0.000000 	0 	; 
 	28  	213 	999999.0000000000 	  0.0000000000 	 0.0000000000 	0.0000000000 	4.000000 	0.000000 	0.000000 	0 	; 
 	28  	214 	999999.0000000000 	  0.0000000000 	 0.0000000000 	0.0000000000 	4.000000 	0.000000 	0.000000 	0 	; 
 	28  	215 	999999.0000000000 	  0.0000000000 	 0.0000000000 	0.0000000000 	4.000000 	0.000000 	0.000000 	0 	; 
 	29  	46  	999999.0000000000 	  0.0000000000 	 0.0000000000 	0.0000000000 	4.000000 	0.000000 	0.000000 	0 	; 
 	29  	155 	999999.0000000000 	  0.0000000000 	 0.0000000000 	0.0000000000 	4.000000 	0.000000 	0.000000 	0 	; 
 	29  	156 	999999.0000000000 	  0.0000000000 	 0.0000000000 	0.0000000000 	4.000000 	0.000000 	0.000000 	0 	; 
 	29  	157 	999999.0000000000 	  0.0000000000 	 0.0000000000 	0.0000000000 	4.000000 	0.000000 	0.000000 	0 	; 
 	30  	134 	999999.0000000000 	  0.0000000000 	 0.0000000000 	0.0000000000 	4.000000 	0.000000 	0.000000 	0 	; 
 	30  	154 	999999.0000000000 	  0.0000000000 	 0.0000000000 	0.0000000000 	4.000000 	0.000000 	0.000000 	0 	; 
 	30  	156 	999999.0000000000 	  0.0000000000 	 0.0000000000 	0.0000000000 	4.000000 	0.000000 	0.000000 	0 	; 
 	30  	389 	999999.0000000000 	  0.0000000000 	 0.0000000000 	0.0000000000 	4.000000 	0.000000 	0.000000 	0 	; 
 	31  	266 	999999.0000000000 	  0.0000000000 	 0.0000000000 	0.0000000000 	4.000000 	0.000000 	0.000000 	0 	; 
 	31  	267 	999999.0000000000 	  0.0000000000 	 0.0000000000 	0.0000000000 	4.000000 	0.000000 	0.000000 	0 	; 
 	31  	268 	999999.0000000000 	  0.0000000000 	 0.0000000000 	0.0000000000 	4.000000 	0.000000 	0.000000 	0 	; 
 	31  	269 	999999.0000000000 	  0.0000000000 	 0.0000000000 	0.0000000000 	4.000000 	0.000000 	0.000000 	0 	; 
 	32  	79  	999999.0000000000 	  0.0000000000 	 0.0000000000 	0.0000000000 	4.000000 	0.000000 	0.000000 	0 	; 
 	32  	240 	999999.0000000000 	  0.0000000000 	 0.0000000000 	0.0000000000 	4.000000 	0.000000 	0.000000 	0 	; 
 	32  	244 	999999.0000000000 	  0.0000000000 	 0.0000000000 	0.0000000000 	4.000000 	0.000000 	0.000000 	0 	; 
 	32  	270 	999999.0000000000 	  0.0000000000 	 0.0000000000 	0.0000000000 	4.000000 	0.000000 	0.000000 	0 	; 
 	33  	40  	999999.0000000000 	  0.0000000000 	 0.0000000000 	0.0000000000 	4.000000 	0.000000 	0.000000 	0 	; 
 	33  	267 	999999.0000000000 	  0.0000000000 	 0.0000000000 	0.0000000000 	4.000000 	0.000000 	0.000000 	0 	; 
 	33  	268 	999999.0000000000 	  0.0000000000 	 0.0000000000 	0.0000000000 	4.000000 	0.000000 	0.000000 	0 	; 
 	33  	390 	999999.0000000000 	  0.0000000000 	 0.0000000000 	0.0000000000 	4.000000 	0.000000 	0.000000 	0 	; 
 	34  	89  	999999.0000000000 	  0.0000000000 	 0.0000000000 	0.0000000000 	4.000000 	0.000000 	0.000000 	0 	; 
 	34  	90  	999999.0000000000 	  0.0000000000 	 0.0000000000 	0.0000000000 	4.000000 	0.000000 	0.000000 	0 	; 
 	34  	98  	999999.0000000000 	  0.0000000000 	 0.0000000000 	0.0000000000 	4.000000 	0.000000 	0.000000 	0 	; 
 	34  	102 	999999.0000000000 	  0.0000000000 	 0.0000000000 	0.0000000000 	4.000000 	0.000000 	0.000000 	0 	; 
 	35  	147 	999999.0000000000 	  0.0000000000 	 0.0000000000 	0.0000000000 	4.000000 	0.000000 	0.000000 	0 	; 
 	35  	148 	999999.0000000000 	  0.0000000000 	 0.0000000000 	0.0000000000 	4.000000 	0.000000 	0.000000 	0 	; 
 	35  	149 	999999.0000000000 	  0.0000000000 	 0.0000000000 	0.0000000000 	4.000000 	0.000000 	0.000000 	0 	; 
 	35  	150 	999999.0000000000 	  0.0000000000 	 0.0000000000 	0.0000000000 	4.000000 	0.000000 	0.000000 	0 	; 
 	36  	240 	999999.0000000000 	  0.0000000000 	 0.0000000000 	0.0000000000 	4.000000 	0.000000 	0.000000 	0 	; 
 	36  	247 	999999.0000000000 	  0.0000000000 	 0.0000000000 	0.0000000000 	4.000000 	0.000000 	0.000000 	0 	; 
 	36  	268 	999999.0000000000 	  0.0000000000 	 0.0000000000 	0.0000000000 	4.000000 	0.000000 	0.000000 	0 	; 
 	36  	354 	999999.0000000000 	  0.0000000000 	 0.0000000000 	0.0000000000 	4.000000 	0.000000 	0.000000 	0 	; 
 	37  	38  	  2400.0000000000 	  1.0000000000 	 0.3333330000 	1.0000000000 	4.000000 	0.000000 	0.000000 	1 	; 
 	37  	375 	  2400.0000000000 	142.0000000000 	 4.6666670000 	1.0000000000 	4.000000 	0.000000 	0.000000 	1 	; 
 	38  	37  	  2400.0000000000 	  1.0000000000 	 0.3333330000 	1.0000000000 	4.000000 	0.000000 	0.000000 	1 	; 
 	40  	33  	999999.0000000000 	  0.0000000000 	 0.0000000000 	0.0000000000 	4.000000 	0.000000 	0.000000 	0 	; 
 	40  	390 	  2400.0000000000 	 24.0000000000 	 0.6666670000 	1.0000000000 	4.000000 	0.000000 	0.000000 	1 	; 
 	41  	101 	   600.0000000000 	315.0000000000 	 8.0000000000 	1.0000000000 	4.000000 	0.000000 	0.000000 	1 	; 
 	41  	113 	   600.0000000000 	240.0000000000 	 6.0000000000 	1.0000000000 	4.000000 	0.000000 	0.000000 	1 	; 
 	42  	41  	   600.0000000000 	196.0000000000 	 5.0000000000 	1.0000000000 	4.000000 	0.000000 	0.000000 	1 	; 
 	44  	46  	  2800.0000000000 	 44.0000000000 	 1.3333330000 	1.0000000000 	4.000000 	0.000000 	0.000000 	1 	; 
 	44  	47  	  2800.0000000000 	320.0000000000 	18.3333330000 	1.0000000000 	4.000000 	0.000000 	0.000000 	1 	; 
 	45  	46  	  2800.0000000000 	321.0000000000 	19.3333330000 	1.0000000000 	4.000000 	0.000000 	0.000000 	1 	; 
 	45  	47  	  2800.0000000000 	 39.0000000000 	 1.3333330000 	1.0000000000 	4.000000 	0.000000 	0.000000 	1 	; 
 	46  	29  	999999.0000000000 	  0.0000000000 	 0.0000000000 	0.0000000000 	4.000000 	0.000000 	0.000000 	0 	; 
 	46  	49  	  2800.0000000000 	 35.0000000000 	 1.3333330000 	1.0000000000 	4.000000 	0.000000 	0.000000 	1 	; 
 	46  	212 	  2800.0000000000 	 82.0000000000 	 2.0000000000 	1.0000000000 	4.000000 	0.000000 	0.000000 	1 	; 
 	47  	66  	  2800.0000000000 	 23.0000000000 	 0.6666670000 	1.0000000000 	4.000000 	0.000000 	0.000000 	1 	; 
 	48  	44  	  2800.0000000000 	 37.0000000000 	 1.6666670000 	1.0000000000 	4.000000 	0.000000 	0.000000 	1 	; 
 	49  	48  	  2800.0000000000 	 43.0000000000 	 5.3333330000 	1.0000000000 	4.000000 	0.000000 	0.000000 	1 	; 
 	49  	157 	  2400.0000000000 	251.0000000000 	 6.3333330000 	1.0000000000 	4.000000 	0.000000 	0.000000 	1 	; 
 	50  	7   	999999.0000000000 	  0.0000000000 	 0.0000000000 	0.0000000000 	4.000000 	0.000000 	0.000000 	0 	; 
 	50  	51  	  2800.0000000000 	126.0000000000 	 9.0000000000 	1.0000000000 	4.000000 	0.000000 	0.000000 	1 	; 
 	51  	7   	999999.0000000000 	  0.0000000000 	 0.0000000000 	0.0000000000 	4.000000 	0.000000 	0.000000 	0 	; 
 	51  	54  	  2400.0000000000 	 30.0000000000 	 1.0000000000 	1.0000000000 	4.000000 	0.000000 	0.000000 	1 	; 
 	51  	58  	  2800.0000000000 	 51.0000000000 	 1.6666670000 	1.0000000000 	4.000000 	0.000000 	0.000000 	1 	; 
 	51  	196 	  2400.0000000000 	194.0000000000 	 9.3333330000 	1.0000000000 	4.000000 	0.000000 	0.000000 	1 	; 
 	52  	54  	  2800.0000000000 	 92.0000000000 	 7.6666670000 	1.0000000000 	4.000000 	0.000000 	0.000000 	1 	; 
 	52  	163 	   900.0000000000 	125.0000000000 	 4.6666670000 	1.0000000000 	4.000000 	0.000000 	0.000000 	1 	; 
 	53  	50  	  2800.0000000000 	114.0000000000 	 3.3333330000 	1.0000000000 	4.000000 	0.000000 	0.000000 	1 	; 
 	54  	51  	  2800.0000000000 	 30.0000000000 	 1.6666670000 	1.0000000000 	4.000000 	0.000000 	0.000000 	1 	; 
 	54  	55  	  2800.0000000000 	103.0000000000 	 3.6666670000 	1.0000000000 	4.000000 	0.000000 	0.000000 	1 	; 
 	54  	163 	   900.0000000000 	105.0000000000 	 3.0000000000 	1.0000000000 	4.000000 	0.000000 	0.000000 	1 	; 
 	55  	7   	999999.0000000000 	  0.0000000000 	 0.0000000000 	0.0000000000 	4.000000 	0.000000 	0.000000 	0 	; 
 	55  	59  	  2800.0000000000 	139.0000000000 	 3.3333330000 	1.0000000000 	4.000000 	0.000000 	0.000000 	1 	; 
 	56  	53  	  2800.0000000000 	 46.0000000000 	 1.0000000000 	1.0000000000 	4.000000 	0.000000 	0.000000 	1 	; 
 	57  	64  	  2800.0000000000 	272.0000000000 	 9.6666670000 	1.0000000000 	4.000000 	0.000000 	0.000000 	1 	; 
 	58  	57  	  2800.0000000000 	 64.0000000000 	 1.6666670000 	1.0000000000 	4.000000 	0.000000 	0.000000 	1 	; 
 	59  	7   	999999.0000000000 	  0.0000000000 	 0.0000000000 	0.0000000000 	4.000000 	0.000000 	0.000000 	0 	; 
 	59  	60  	  2800.0000000000 	 48.0000000000 	 1.0000000000 	1.0000000000 	4.000000 	0.000000 	0.000000 	1 	; 
 	60  	61  	  2800.0000000000 	 56.0000000000 	 1.3333330000 	1.0000000000 	4.000000 	0.000000 	0.000000 	1 	; 
 	60  	394 	  2800.0000000000 	161.0000000000 	 3.6666670000 	1.0000000000 	4.000000 	0.000000 	0.000000 	1 	; 
 	61  	172 	   600.0000000000 	140.0000000000 	 4.0000000000 	1.0000000000 	4.000000 	0.000000 	0.000000 	1 	; 
 	61  	393 	  2800.0000000000 	106.0000000000 	 2.6666670000 	1.0000000000 	4.000000 	0.000000 	0.000000 	1 	; 
 	62  	56  	  2800.0000000000 	132.0000000000 	 2.6666670000 	1.0000000000 	4.000000 	0.000000 	0.000000 	1 	; 
 	63  	11  	999999.0000000000 	  0.0000000000 	 0.0000000000 	0.0000000000 	4.000000 	0.000000 	0.000000 	0 	; 
 	63  	52  	  2800.0000000000 	301.0000000000 	12.0000000000 	1.0000000000 	4.000000 	0.000000 	0.000000 	1 	; 
 	63  	64  	  2800.0000000000 	 23.0000000000 	 0.6666670000 	1.0000000000 	4.000000 	0.000000 	0.000000 	1 	; 
 	63  	348 	   900.0000000000 	 90.0000000000 	 2.6666670000 	1.0000000000 	4.000000 	0.000000 	0.000000 	1 	; 
 	64  	65  	  2800.0000000000 	 16.0000000000 	 0.6666670000 	1.0000000000 	4.000000 	0.000000 	0.000000 	1 	; 
 	64  	279 	   900.0000000000 	339.0000000000 	 8.6666670000 	1.0000000000 	4.000000 	0.000000 	0.000000 	1 	; 
 	65  	63  	  2800.0000000000 	 19.0000000000 	 1.3333330000 	1.0000000000 	4.000000 	0.000000 	0.000000 	1 	; 
 	65  	351 	  2800.0000000000 	115.0000000000 	 3.3333330000 	1.0000000000 	4.000000 	0.000000 	0.000000 	1 	; 
 	66  	67  	  2800.0000000000 	 36.0000000000 	 1.6666670000 	1.0000000000 	4.000000 	0.000000 	0.000000 	1 	; 
 	66  	193 	  2400.0000000000 	280.0000000000 	 8.6666670000 	1.0000000000 	4.000000 	0.000000 	0.000000 	1 	; 
 	67  	45  	  2800.0000000000 	 22.0000000000 	 0.6666670000 	1.0000000000 	4.000000 	0.000000 	0.000000 	1 	; 
 	67  	369 	  2800.0000000000 	 43.0000000000 	 1.0000000000 	1.0000000000 	4.000000 	0.000000 	0.000000 	1 	; 
 	68  	27  	999999.0000000000 	  0.0000000000 	 0.0000000000 	0.0000000000 	4.000000 	0.000000 	0.000000 	0 	; 
 	68  	100 	   600.0000000000 	262.0000000000 	10.6666670000 	1.0000000000 	4.000000 	0.000000 	0.000000 	1 	; 
 	69  	314 	  2800.0000000000 	133.0000000000 	 8.0000000000 	1.0000000000 	4.000000 	0.000000 	0.000000 	1 	; 
 	70  	17  	999999.0000000000 	  0.0000000000 	 0.0000000000 	0.0000000000 	4.000000 	0.000000 	0.000000 	0 	; 
 	70  	18  	999999.0000000000 	  0.0000000000 	 0.0000000000 	0.0000000000 	4.000000 	0.000000 	0.000000 	0 	; 
 	70  	73  	   900.0000000000 	103.0000000000 	 4.0000000000 	1.0000000000 	4.000000 	0.000000 	0.000000 	1 	; 
 	70  	245 	   900.0000000000 	 77.0000000000 	 2.0000000000 	1.0000000000 	4.000000 	0.000000 	0.000000 	1 	; 
 	71  	243 	   900.0000000000 	189.0000000000 	 5.0000000000 	1.0000000000 	4.000000 	0.000000 	0.000000 	1 	; 
 	72  	39  	   900.0000000000 	304.0000000000 	 7.3333330000 	1.0000000000 	4.000000 	0.000000 	0.000000 	1 	; 
 	73  	18  	999999.0000000000 	  0.0000000000 	 0.0000000000 	0.0000000000 	4.000000 	0.000000 	0.000000 	0 	; 
 	73  	75  	   900.0000000000 	348.0000000000 	14.6666670000 	1.0000000000 	4.000000 	0.000000 	0.000000 	1 	; 
 	74  	96  	  2400.0000000000 	568.0000000000 	30.3333330000 	1.0000000000 	4.000000 	0.000000 	0.000000 	1 	; 
 	75  	16  	999999.0000000000 	  0.0000000000 	 0.0000000000 	0.0000000000 	4.000000 	0.000000 	0.000000 	0 	; 
 	75  	18  	999999.0000000000 	  0.0000000000 	 0.0000000000 	0.0000000000 	4.000000 	0.000000 	0.000000 	0 	; 
 	75  	70  	   900.0000000000 	451.0000000000 	11.3333330000 	1.0000000000 	4.000000 	0.000000 	0.000000 	1 	; 
 	75  	317 	   900.0000000000 	445.0000000000 	11.0000000000 	1.0000000000 	4.000000 	0.000000 	0.000000 	1 	; 
 	76  	79  	   900.0000000000 	178.0000000000 	15.3333330000 	1.0000000000 	4.000000 	0.000000 	0.000000 	1 	; 
 	77  	69  	  2800.0000000000 	137.0000000000 	 7.0000000000 	1.0000000000 	4.000000 	0.000000 	0.000000 	1 	; 
 	78  	27  	999999.0000000000 	  0.0000000000 	 0.0000000000 	0.0000000000 	4.000000 	0.000000 	0.000000 	0 	; 
 	78  	68  	   600.0000000000 	253.0000000000 	 7.0000000000 	1.0000000000 	4.000000 	0.000000 	0.000000 	1 	; 
 	78  	104 	   600.0000000000 	236.0000000000 	 6.0000000000 	1.0000000000 	4.000000 	0.000000 	0.000000 	1 	; 
 	78  	280 	   600.0000000000 	 85.0000000000 	 2.6666670000 	1.0000000000 	4.000000 	0.000000 	0.000000 	1 	; 
 	79  	32  	999999.0000000000 	  0.0000000000 	 0.0000000000 	0.0000000000 	4.000000 	0.000000 	0.000000 	0 	; 
 	79  	81  	  2400.0000000000 	 90.0000000000 	 6.6666670000 	1.0000000000 	4.000000 	0.000000 	0.000000 	1 	; 
 	79  	251 	   900.0000000000 	463.0000000000 	14.0000000000 	1.0000000000 	4.000000 	0.000000 	0.000000 	1 	; 
 	79  	273 	  2400.0000000000 	285.0000000000 	12.0000000000 	1.0000000000 	4.000000 	0.000000 	0.000000 	1 	; 
 	79  	352 	  2400.0000000000 	310.0000000000 	10.0000000000 	1.0000000000 	4.000000 	0.000000 	0.000000 	1 	; 
 	80  	76  	   900.0000000000 	457.0000000000 	14.6666670000 	1.0000000000 	4.000000 	0.000000 	0.000000 	1 	; 
 	80  	82  	   900.0000000000 	 34.0000000000 	 1.3333330000 	1.0000000000 	4.000000 	0.000000 	0.000000 	1 	; 
 	80  	243 	   900.0000000000 	 66.0000000000 	 3.0000000000 	1.0000000000 	4.000000 	0.000000 	0.000000 	1 	; 
 	81  	74  	  2400.0000000000 	277.0000000000 	18.3333330000 	1.0000000000 	4.000000 	0.000000 	0.000000 	1 	; 
 	81  	79  	  2400.0000000000 	 90.0000000000 	11.3333330000 	1.0000000000 	4.000000 	0.000000 	0.000000 	1 	; 
 	81  	255 	   900.0000000000 	188.0000000000 	 6.6666670000 	1.0000000000 	4.000000 	0.000000 	0.000000 	1 	; 
 	82  	80  	   900.0000000000 	 34.0000000000 	 1.0000000000 	1.0000000000 	4.000000 	0.000000 	0.000000 	1 	; 
 	82  	229 	   900.0000000000 	 43.0000000000 	 1.3333330000 	1.0000000000 	4.000000 	0.000000 	0.000000 	1 	; 
 	83  	97  	  2400.0000000000 	 65.0000000000 	 1.3333330000 	1.0000000000 	4.000000 	0.000000 	0.000000 	1 	; 
 	83  	100 	  2400.0000000000 	 96.0000000000 	12.3333330000 	1.0000000000 	4.000000 	0.000000 	0.000000 	1 	; 
 	83  	344 	   600.0000000000 	198.0000000000 	15.3333330000 	1.0000000000 	4.000000 	0.000000 	0.000000 	1 	; 
 	84  	85  	  2400.0000000000 	132.0000000000 	 9.6666670000 	1.0000000000 	4.000000 	0.000000 	0.000000 	1 	; 
 	85  	87  	  2400.0000000000 	197.0000000000 	15.3333330000 	1.0000000000 	4.000000 	0.000000 	0.000000 	1 	; 
 	85  	91  	  2400.0000000000 	 31.0000000000 	 1.3333330000 	1.0000000000 	4.000000 	0.000000 	0.000000 	1 	; 
 	85  	252 	  2400.0000000000 	301.0000000000 	 6.3333330000 	1.0000000000 	4.000000 	0.000000 	0.000000 	1 	; 
 	86  	87  	   600.0000000000 	 31.0000000000 	 1.3333330000 	1.0000000000 	4.000000 	0.000000 	0.000000 	1 	; 
 	86  	91  	  2400.0000000000 	198.0000000000 	10.6666670000 	1.0000000000 	4.000000 	0.000000 	0.000000 	1 	; 
 	86  	344 	   600.0000000000 	137.0000000000 	15.3333330000 	1.0000000000 	4.000000 	0.000000 	0.000000 	1 	; 
 	87  	86  	   600.0000000000 	 31.0000000000 	 1.3333330000 	1.0000000000 	4.000000 	0.000000 	0.000000 	1 	; 
 	87  	108 	   600.0000000000 	174.0000000000 	 6.6666670000 	1.0000000000 	4.000000 	0.000000 	0.000000 	1 	; 
 	87  	384 	  2400.0000000000 	216.0000000000 	 6.6666670000 	1.0000000000 	4.000000 	0.000000 	0.000000 	1 	; 
 	88  	85  	  2400.0000000000 	100.0000000000 	 4.3333330000 	1.0000000000 	4.000000 	0.000000 	0.000000 	1 	; 
 	89  	34  	999999.0000000000 	  0.0000000000 	 0.0000000000 	0.0000000000 	4.000000 	0.000000 	0.000000 	0 	; 
 	89  	104 	  2400.0000000000 	 86.0000000000 	 2.6666670000 	1.0000000000 	4.000000 	0.000000 	0.000000 	1 	; 
 	90  	34  	999999.0000000000 	  0.0000000000 	 0.0000000000 	0.0000000000 	4.000000 	0.000000 	0.000000 	0 	; 
 	90  	94  	  2400.0000000000 	165.0000000000 	10.3333330000 	1.0000000000 	4.000000 	0.000000 	0.000000 	1 	; 
 	91  	83  	  2400.0000000000 	137.0000000000 	 8.6666670000 	1.0000000000 	4.000000 	0.000000 	0.000000 	1 	; 
 	91  	85  	  2400.0000000000 	 31.0000000000 	 0.6666670000 	1.0000000000 	4.000000 	0.000000 	0.000000 	1 	; 
 	91  	92  	  2400.0000000000 	128.0000000000 	 4.6666670000 	1.0000000000 	4.000000 	0.000000 	0.000000 	1 	; 
 	92  	95  	  2400.0000000000 	132.0000000000 	 8.3333330000 	1.0000000000 	4.000000 	0.000000 	0.000000 	1 	; 
 	93  	86  	  2400.0000000000 	131.0000000000 	13.3333330000 	1.0000000000 	4.000000 	0.000000 	0.000000 	1 	; 
 	94  	84  	  2400.0000000000 	128.0000000000 	 4.0000000000 	1.0000000000 	4.000000 	0.000000 	0.000000 	1 	; 
 	94  	95  	   900.0000000000 	 38.0000000000 	 1.6666670000 	1.0000000000 	4.000000 	0.000000 	0.000000 	1 	; 
 	94  	98  	   900.0000000000 	192.0000000000 	 9.6666670000 	1.0000000000 	4.000000 	0.000000 	0.000000 	1 	; 
 	95  	89  	  2400.0000000000 	165.0000000000 	 5.0000000000 	1.0000000000 	4.000000 	0.000000 	0.000000 	1 	; 
 	95  	94  	   900.0000000000 	 38.0000000000 	 2.0000000000 	1.0000000000 	4.000000 	0.000000 	0.000000 	1 	; 
 	96  	88  	  2400.0000000000 	 75.0000000000 	 4.0000000000 	1.0000000000 	4.000000 	0.000000 	0.000000 	1 	; 
 	97  	91  	  2400.0000000000 	 72.0000000000 	 1.6666670000 	1.0000000000 	4.000000 	0.000000 	0.000000 	1 	; 
 	98  	34  	999999.0000000000 	  0.0000000000 	 0.0000000000 	0.0000000000 	4.000000 	0.000000 	0.000000 	0 	; 
 	98  	250 	   900.0000000000 	342.0000000000 	17.3333330000 	1.0000000000 	4.000000 	0.000000 	0.000000 	1 	; 