<NUMBER OF ZONES> 36
<TOTAL OD FLOW> 11481.923999999990000
<END OF METADATA> 


Origin 1 
2 	: 	14.310000; 	3 	: 	12.306000; 	4 	: 	24.582000; 	5 	: 	18.504000; 	6 	: 	29.298000; 	
7 	: 	64.134000; 	8 	: 	46.788000; 	9 	: 	59.736000; 	10 	: 	8.274000; 	11 	: 	3.612000; 	
12 	: 	6.888000; 	13 	: 	3.132000; 	14 	: 	3.468000; 	15 	: 	16.512000; 	16 	: 	18.618000; 	
17 	: 	20.232000; 	18 	: 	40.560000; 	19 	: 	21.144000; 	20 	: 	9.642000; 	21 	: 	15.996000; 	
22 	: 	8.952000; 	23 	: 	12.276000; 	24 	: 	4.998000; 	25 	: 	10.542000; 	26 	: 	11.166000; 	
27 	: 	9.732000; 	28 	: 	4.308000; 	29 	: 	33.204000; 	30 	: 	19.470000; 	31 	: 	28.032000; 	
32 	: 	28.674000; 	33 	: 	10.908000; 	34 	: 	9.846000; 	35 	: 	18.030000; 	36 	: 	11.556000; 	

Origin 2 
1 	: 	14.520000; 	3 	: 	1.590000; 	4 	: 	4.710000; 	5 	: 	3.780000; 	6 	: 	4.974000; 	
7 	: 	9.420000; 	8 	: 	10.008000; 	9 	: 	7.176000; 	10 	: 	2.874000; 	11 	: 	0.750000; 	
12 	: 	2.850000; 	13 	: 	1.542000; 	14 	: 	0.846000; 	15 	: 	4.806000; 	16 	: 	3.012000; 	
17 	: 	2.172000; 	18 	: 	4.422000; 	19 	: 	5.232000; 	20 	: 	3.408000; 	21 	: 	7.614000; 	
22 	: 	2.226000; 	23 	: 	3.432000; 	24 	: 	0.576000; 	25 	: 	2.052000; 	26 	: 	2.994000; 	
27 	: 	1.962000; 	28 	: 	1.830000; 	29 	: 	5.178000; 	30 	: 	3.372000; 	31 	: 	5.628000; 	
32 	: 	6.216000; 	33 	: 	3.330000; 	34 	: 	0.858000; 	35 	: 	6.000000; 	36 	: 	1.914000; 	

Origin 3 
1 	: 	12.834000; 	2 	: 	1.578000; 	4 	: 	3.480000; 	5 	: 	3.408000; 	6 	: 	4.260000; 	
7 	: 	11.142000; 	8 	: 	7.596000; 	9 	: 	9.024000; 	10 	: 	2.340000; 	11 	: 	0.672000; 	
12 	: 	2.538000; 	13 	: 	1.074000; 	14 	: 	0.810000; 	15 	: 	4.050000; 	16 	: 	3.624000; 	
17 	: 	2.766000; 	18 	: 	6.558000; 	19 	: 	4.044000; 	20 	: 	2.676000; 	21 	: 	5.718000; 	
22 	: 	1.560000; 	23 	: 	2.478000; 	24 	: 	0.834000; 	25 	: 	2.346000; 	26 	: 	2.880000; 	
27 	: 	2.094000; 	28 	: 	1.542000; 	29 	: 	5.730000; 	30 	: 	3.786000; 	31 	: 	5.010000; 	
32 	: 	5.598000; 	33 	: 	2.400000; 	34 	: 	1.074000; 	35 	: 	5.328000; 	36 	: 	2.004000; 	

Origin 4 
1 	: 	24.684000; 	2 	: 	4.548000; 	3 	: 	3.456000; 	5 	: 	7.620000; 	6 	: 	8.646000; 	
7 	: 	23.988000; 	8 	: 	12.984000; 	9 	: 	18.660000; 	10 	: 	4.776000; 	11 	: 	1.626000; 	
12 	: 	5.166000; 	13 	: 	2.076000; 	14 	: 	1.890000; 	15 	: 	8.850000; 	16 	: 	8.166000; 	
17 	: 	7.824000; 	18 	: 	15.600000; 	19 	: 	8.946000; 	20 	: 	5.040000; 	21 	: 	11.508000; 	
22 	: 	3.078000; 	23 	: 	4.272000; 	24 	: 	2.238000; 	25 	: 	5.448000; 	26 	: 	5.808000; 	
27 	: 	4.974000; 	28 	: 	3.132000; 	29 	: 	14.358000; 	30 	: 	9.096000; 	31 	: 	10.764000; 	
32 	: 	13.152000; 	33 	: 	4.578000; 	34 	: 	2.910000; 	35 	: 	11.208000; 	36 	: 	4.110000; 	

Origin 5 
1 	: 	18.654000; 	2 	: 	3.714000; 	3 	: 	3.282000; 	4 	: 	7.560000; 	6 	: 	11.370000; 	
7 	: 	27.672000; 	8 	: 	17.922000; 	9 	: 	23.700000; 	10 	: 	4.074000; 	11 	: 	1.680000; 	
12 	: 	3.180000; 	13 	: 	1.326000; 	14 	: 	1.554000; 	15 	: 	6.546000; 	16 	: 	7.416000; 	
17 	: 	6.186000; 	18 	: 	16.104000; 	19 	: 	6.588000; 	20 	: 	4.224000; 	21 	: 	8.058000; 	
22 	: 	2.814000; 	23 	: 	4.482000; 	24 	: 	2.412000; 	25 	: 	6.036000; 	26 	: 	6.078000; 	
27 	: 	4.818000; 	28 	: 	2.058000; 	29 	: 	12.732000; 	30 	: 	7.506000; 	31 	: 	11.988000; 	
32 	: 	7.362000; 	33 	: 	4.254000; 	34 	: 	3.576000; 	35 	: 	7.338000; 	36 	: 	4.116000; 	

Origin 6 
1 	: 	29.586000; 	2 	: 	4.914000; 	3 	: 	4.278000; 	4 	: 	8.802000; 	5 	: 	11.508000; 	
7 	: 	16.026000; 	8 	: 	16.650000; 	9 	: 	14.274000; 	10 	: 	6.132000; 	11 	: 	1.146000; 	
12 	: 	7.962000; 	13 	: 	2.718000; 	14 	: 	2.112000; 	15 	: 	9.852000; 	16 	: 	8.778000; 	
17 	: 	6.084000; 	18 	: 	11.778000; 	19 	: 	14.268000; 	20 	: 	7.680000; 	21 	: 	14.016000; 	
22 	: 	5.232000; 	23 	: 	6.564000; 	24 	: 	1.674000; 	25 	: 	4.722000; 	26 	: 	6.348000; 	
27 	: 	3.924000; 	28 	: 	4.800000; 	29 	: 	13.164000; 	30 	: 	9.390000; 	31 	: 	9.918000; 	
32 	: 	17.436000; 	33 	: 	5.526000; 	34 	: 	2.124000; 	35 	: 	15.858000; 	36 	: 	3.618000; 	

Origin 7 
1 	: 	65.868000; 	2 	: 	9.504000; 	3 	: 	11.274000; 	4 	: 	24.384000; 	5 	: 	28.392000; 	
6 	: 	16.212000; 	8 	: 	36.750000; 	9 	: 	18.822000; 	10 	: 	13.878000; 	11 	: 	2.082000; 	
12 	: 	21.270000; 	13 	: 	5.946000; 	14 	: 	3.384000; 	15 	: 	17.964000; 	16 	: 	16.902000; 	
17 	: 	7.446000; 	18 	: 	14.280000; 	19 	: 	29.040000; 	20 	: 	17.574000; 	21 	: 	30.108000; 	
22 	: 	13.212000; 	23 	: 	18.618000; 	24 	: 	1.584000; 	25 	: 	6.042000; 	26 	: 	11.946000; 	
27 	: 	7.992000; 	28 	: 	10.410000; 	29 	: 	19.842000; 	30 	: 	16.164000; 	31 	: 	15.372000; 	
32 	: 	37.806000; 	33 	: 	10.668000; 	34 	: 	3.480000; 	35 	: 	30.084000; 	36 	: 	5.976000; 	

Origin 8 
1 	: 	47.124000; 	2 	: 	9.720000; 	3 	: 	7.584000; 	4 	: 	13.032000; 	5 	: 	18.114000; 	
6 	: 	16.404000; 	7 	: 	36.204000; 	9 	: 	22.836000; 	10 	: 	8.124000; 	11 	: 	2.802000; 	
12 	: 	10.134000; 	13 	: 	4.080000; 	14 	: 	3.342000; 	15 	: 	13.908000; 	16 	: 	12.702000; 	
17 	: 	11.202000; 	18 	: 	21.642000; 	19 	: 	19.794000; 	20 	: 	9.648000; 	21 	: 	20.412000; 	
22 	: 	6.732000; 	23 	: 	8.358000; 	24 	: 	3.096000; 	25 	: 	7.602000; 	26 	: 	8.826000; 	
27 	: 	7.620000; 	28 	: 	5.898000; 	29 	: 	18.288000; 	30 	: 	14.772000; 	31 	: 	15.744000; 	
32 	: 	24.792000; 	33 	: 	7.566000; 	34 	: 	5.586000; 	35 	: 	22.428000; 	36 	: 	6.282000; 	

Origin 9 
1 	: 	61.620000; 	2 	: 	7.266000; 	3 	: 	9.204000; 	4 	: 	19.026000; 	5 	: 	24.432000; 	
6 	: 	14.484000; 	7 	: 	18.972000; 	8 	: 	23.244000; 	10 	: 	10.440000; 	11 	: 	2.082000; 	
12 	: 	17.502000; 	13 	: 	7.032000; 	14 	: 	3.462000; 	15 	: 	16.002000; 	16 	: 	12.972000; 	
17 	: 	5.310000; 	18 	: 	9.474000; 	19 	: 	25.242000; 	20 	: 	15.258000; 	21 	: 	27.762000; 	
22 	: 	10.308000; 	23 	: 	13.356000; 	24 	: 	0.918000; 	25 	: 	3.564000; 	26 	: 	8.418000; 	
27 	: 	6.408000; 	28 	: 	9.612000; 	29 	: 	12.774000; 	30 	: 	11.514000; 	31 	: 	12.462000; 	
32 	: 	32.508000; 	33 	: 	9.894000; 	34 	: 	2.502000; 	35 	: 	28.584000; 	36 	: 	5.082000; 	

Origin 10 
1 	: 	9.660000; 	2 	: 	2.430000; 	3 	: 	2.406000; 	4 	: 	5.382000; 	5 	: 	4.896000; 	
6 	: 	5.676000; 	7 	: 	10.878000; 	8 	: 	8.598000; 	9 	: 	7.980000; 	11 	: 	15.372000; 	
12 	: 	76.464000; 	13 	: 	17.334000; 	14 	: 	22.860000; 	15 	: 	4.794000; 	16 	: 	4.140000; 	
17 	: 	2.526000; 	18 	: 	5.460000; 	19 	: 	5.250000; 	20 	: 	2.826000; 	21 	: 	4.698000; 	
22 	: 	2.316000; 	23 	: 	3.324000; 	24 	: 	26.040000; 	25 	: 	68.274000; 	26 	: 	81.036000; 	
27 	: 	42.546000; 	28 	: 	33.900000; 	29 	: 	5.268000; 	30 	: 	3.894000; 	31 	: 	3.798000; 	
32 	: 	6.558000; 	33 	: 	1.854000; 	34 	: 	43.722000; 	35 	: 	6.402000; 	36 	: 	1.386000; 	

Origin 11 
1 	: 	5.286000; 	2 	: 	0.798000; 	3 	: 	0.900000; 	4 	: 	2.082000; 	5 	: 	2.490000; 	
6 	: 	1.296000; 	7 	: 	2.064000; 	8 	: 	3.468000; 	9 	: 	1.938000; 	10 	: 	13.902000; 	
12 	: 	29.430000; 	13 	: 	6.432000; 	14 	: 	5.142000; 	15 	: 	1.956000; 	16 	: 	1.536000; 	
17 	: 	0.624000; 	18 	: 	1.218000; 	19 	: 	2.364000; 	20 	: 	1.464000; 	21 	: 	2.466000; 	
22 	: 	1.056000; 	23 	: 	1.734000; 	24 	: 	4.098000; 	25 	: 	13.392000; 	26 	: 	21.114000; 	
27 	: 	10.020000; 	28 	: 	13.482000; 	29 	: 	1.806000; 	30 	: 	1.458000; 	31 	: 	1.350000; 	
32 	: 	3.318000; 	33 	: 	0.942000; 	34 	: 	5.988000; 	35 	: 	3.312000; 	36 	: 	0.510000; 	

Origin 12 
1 	: 	7.320000; 	2 	: 	2.376000; 	3 	: 	2.130000; 	4 	: 	4.746000; 	5 	: 	3.402000; 	
6 	: 	6.462000; 	7 	: 	15.240000; 	8 	: 	8.826000; 	9 	: 	12.030000; 	10 	: 	83.070000; 	
11 	: 	32.100000; 	13 	: 	24.372000; 	14 	: 	25.206000; 	15 	: 	4.248000; 	16 	: 	2.970000; 	
17 	: 	2.430000; 	18 	: 	5.124000; 	19 	: 	3.936000; 	20 	: 	2.274000; 	21 	: 	2.994000; 	
22 	: 	1.842000; 	23 	: 	2.742000; 	24 	: 	31.626000; 	25 	: 	97.668000; 	26 	: 	75.006000; 	
27 	: 	75.438000; 	28 	: 	27.708000; 	29 	: 	7.182000; 	30 	: 	5.460000; 	31 	: 	2.310000; 	
32 	: 	4.320000; 	33 	: 	0.834000; 	34 	: 	61.290000; 	35 	: 	5.094000; 	36 	: 	0.942000; 	

Origin 13 
1 	: 	2.592000; 	2 	: 	1.044000; 	3 	: 	0.852000; 	4 	: 	1.722000; 	5 	: 	1.146000; 	
6 	: 	1.980000; 	7 	: 	4.134000; 	8 	: 	3.240000; 	9 	: 	4.932000; 	10 	: 	19.866000; 	
11 	: 	7.620000; 	12 	: 	25.212000; 	14 	: 	7.788000; 	15 	: 	1.026000; 	16 	: 	1.374000; 	
17 	: 	1.314000; 	18 	: 	2.916000; 	19 	: 	1.548000; 	20 	: 	0.810000; 	21 	: 	1.116000; 	
22 	: 	0.648000; 	23 	: 	0.882000; 	24 	: 	15.618000; 	25 	: 	43.836000; 	26 	: 	39.168000; 	
27 	: 	30.510000; 	28 	: 	11.622000; 	29 	: 	2.760000; 	30 	: 	1.986000; 	31 	: 	1.338000; 	
32 	: 	1.554000; 	33 	: 	0.378000; 	34 	: 	29.718000; 	35 	: 	1.260000; 	36 	: 	0.600000; 	

Origin 14 
1 	: 	4.662000; 	2 	: 	0.798000; 	3 	: 	0.966000; 	4 	: 	2.292000; 	5 	: 	2.130000; 	
6 	: 	2.166000; 	7 	: 	2.958000; 	8 	: 	3.846000; 	9 	: 	2.892000; 	10 	: 	21.594000; 	
11 	: 	5.424000; 	12 	: 	23.424000; 	13 	: 	6.636000; 	15 	: 	1.674000; 	16 	: 	1.374000; 	
17 	: 	0.660000; 	18 	: 	1.320000; 	19 	: 	2.142000; 	20 	: 	1.332000; 	21 	: 	2.052000; 	
22 	: 	1.002000; 	23 	: 	1.620000; 	24 	: 	5.676000; 	25 	: 	18.252000; 	26 	: 	22.740000; 	
27 	: 	19.920000; 	28 	: 	13.614000; 	29 	: 	2.220000; 	30 	: 	1.692000; 	31 	: 	1.008000; 	
32 	: 	2.748000; 	33 	: 	0.618000; 	34 	: 	12.648000; 	35 	: 	2.310000; 	36 	: 	0.444000; 	

Origin 15 
1 	: 	16.512000; 	2 	: 	4.620000; 	3 	: 	4.020000; 	4 	: 	8.790000; 	5 	: 	6.570000; 	
6 	: 	9.624000; 	7 	: 	17.628000; 	8 	: 	13.788000; 	9 	: 	15.672000; 	10 	: 	4.194000; 	
11 	: 	1.518000; 	12 	: 	3.762000; 	13 	: 	1.308000; 	14 	: 	1.374000; 	16 	: 	5.496000; 	
17 	: 	5.400000; 	18 	: 	11.004000; 	19 	: 	7.896000; 	20 	: 	4.602000; 	21 	: 	6.618000; 	
22 	: 	3.564000; 	23 	: 	5.214000; 	24 	: 	1.788000; 	25 	: 	4.668000; 	26 	: 	4.164000; 	
27 	: 	4.038000; 	28 	: 	2.232000; 	29 	: 	8.766000; 	30 	: 	5.778000; 	31 	: 	6.012000; 	
32 	: 	8.874000; 	33 	: 	2.160000; 	34 	: 	3.354000; 	35 	: 	5.880000; 	36 	: 	2.502000; 	

Origin 16 
1 	: 	19.986000; 	2 	: 	2.988000; 	3 	: 	3.714000; 	4 	: 	8.190000; 	5 	: 	7.944000; 	
6 	: 	8.736000; 	7 	: 	16.872000; 	8 	: 	12.714000; 	9 	: 	12.816000; 	10 	: 	3.774000; 	
11 	: 	1.110000; 	12 	: 	4.014000; 	13 	: 	1.536000; 	14 	: 	1.092000; 	15 	: 	5.526000; 	
17 	: 	4.026000; 	18 	: 	7.716000; 	19 	: 	9.390000; 	20 	: 	5.418000; 	21 	: 	8.706000; 	
22 	: 	3.750000; 	23 	: 	5.772000; 	24 	: 	0.900000; 	25 	: 	4.146000; 	26 	: 	4.440000; 	
27 	: 	3.816000; 	28 	: 	2.694000; 	29 	: 	7.290000; 	30 	: 	4.968000; 	31 	: 	9.144000; 	
32 	: 	11.478000; 	33 	: 	4.158000; 	34 	: 	2.124000; 	35 	: 	7.770000; 	36 	: 	3.462000; 	

Origin 17 
1 	: 	20.610000; 	2 	: 	2.226000; 	3 	: 	2.802000; 	4 	: 	8.196000; 	5 	: 	6.306000; 	
6 	: 	6.288000; 	7 	: 	7.464000; 	8 	: 	11.700000; 	9 	: 	5.292000; 	10 	: 	3.414000; 	
11 	: 	0.702000; 	12 	: 	3.264000; 	13 	: 	1.980000; 	14 	: 	0.828000; 	15 	: 	5.676000; 	
16 	: 	4.092000; 	18 	: 	3.042000; 	19 	: 	7.842000; 	20 	: 	5.172000; 	21 	: 	10.914000; 	
22 	: 	3.942000; 	23 	: 	5.412000; 	24 	: 	0.432000; 	25 	: 	1.596000; 	26 	: 	3.552000; 	
27 	: 	2.130000; 	28 	: 	2.298000; 	29 	: 	4.932000; 	30 	: 	3.240000; 	31 	: 	5.490000; 	
32 	: 	7.860000; 	33 	: 	4.650000; 	34 	: 	0.930000; 	35 	: 	7.014000; 	36 	: 	1.716000; 	

Origin 18 
1 	: 	42.018000; 	2 	: 	4.482000; 	3 	: 	6.732000; 	4 	: 	15.900000; 	5 	: 	16.674000; 	
6 	: 	11.964000; 	7 	: 	14.478000; 	8 	: 	22.038000; 	9 	: 	9.528000; 	10 	: 	7.242000; 	
11 	: 	1.356000; 	12 	: 	7.566000; 	13 	: 	4.152000; 	14 	: 	1.626000; 	15 	: 	11.226000; 	
16 	: 	7.872000; 	17 	: 	3.060000; 	19 	: 	18.414000; 	20 	: 	10.752000; 	21 	: 	21.462000; 	
22 	: 	8.034000; 	23 	: 	11.652000; 	24 	: 	0.552000; 	25 	: 	3.000000; 	26 	: 	8.184000; 	
27 	: 	4.572000; 	28 	: 	5.370000; 	29 	: 	8.832000; 	30 	: 	6.354000; 	31 	: 	11.184000; 	
32 	: 	21.198000; 	33 	: 	10.902000; 	34 	: 	1.620000; 	35 	: 	14.916000; 	36 	: 	4.506000; 	

Origin 19 
1 	: 	21.198000; 	2 	: 	5.040000; 	3 	: 	4.026000; 	4 	: 	8.910000; 	5 	: 	6.636000; 	
6 	: 	13.968000; 	7 	: 	28.542000; 	8 	: 	19.656000; 	9 	: 	24.750000; 	10 	: 	4.824000; 	
11 	: 	1.878000; 	12 	: 	3.744000; 	13 	: 	2.028000; 	14 	: 	1.830000; 	15 	: 	7.908000; 	
16 	: 	9.348000; 	17 	: 	7.482000; 	18 	: 	18.060000; 	20 	: 	4.740000; 	21 	: 	8.706000; 	
22 	: 	3.258000; 	23 	: 	5.496000; 	24 	: 	2.574000; 	25 	: 	5.832000; 	26 	: 	6.048000; 	
27 	: 	4.788000; 	28 	: 	2.400000; 	29 	: 	13.764000; 	30 	: 	8.586000; 	31 	: 	13.572000; 	
32 	: 	10.452000; 	33 	: 	5.556000; 	34 	: 	4.068000; 	35 	: 	9.870000; 	36 	: 	4.032000; 	

Origin 20 
1 	: 	9.894000; 	2 	: 	3.354000; 	3 	: 	2.610000; 	4 	: 	5.022000; 	5 	: 	4.314000; 	
6 	: 	7.608000; 	7 	: 	17.214000; 	8 	: 	9.594000; 	9 	: 	14.850000; 	10 	: 	2.238000; 	
11 	: 	0.966000; 	12 	: 	2.580000; 	13 	: 	0.816000; 	14 	: 	0.942000; 	15 	: 	4.608000; 	
16 	: 	5.136000; 	17 	: 	5.076000; 	18 	: 	10.410000; 	19 	: 	4.728000; 	21 	: 	4.716000; 	
22 	: 	1.770000; 	23 	: 	2.634000; 	24 	: 	1.320000; 	25 	: 	2.976000; 	26 	: 	3.342000; 	
27 	: 	2.868000; 	28 	: 	1.560000; 	29 	: 	8.730000; 	30 	: 	5.418000; 	31 	: 	6.942000; 	
32 	: 	7.074000; 	33 	: 	2.766000; 	34 	: 	2.610000; 	35 	: 	5.592000; 	36 	: 	3.054000; 	

Origin 21 
1 	: 	15.870000; 	2 	: 	7.302000; 	3 	: 	5.634000; 	4 	: 	11.430000; 	5 	: 	8.034000; 	
6 	: 	13.674000; 	7 	: 	29.496000; 	8 	: 	20.220000; 	9 	: 	27.162000; 	10 	: 	3.606000; 	
11 	: 	1.800000; 	12 	: 	2.736000; 	13 	: 	1.164000; 	14 	: 	1.542000; 	15 	: 	6.618000; 	
16 	: 	8.604000; 	17 	: 	10.380000; 	18 	: 	21.012000; 	19 	: 	8.694000; 	20 	: 	4.674000; 	
22 	: 	4.020000; 	23 	: 	5.844000; 	24 	: 	2.814000; 	25 	: 	5.496000; 	26 	: 	5.454000; 	
27 	: 	4.716000; 	28 	: 	1.830000; 	29 	: 	14.358000; 	30 	: 	8.550000; 	31 	: 	14.838000; 	
32 	: 	11.364000; 	33 	: 	4.932000; 	34 	: 	4.662000; 	35 	: 	7.626000; 	36 	: 	4.146000; 	

Origin 22 
1 	: 	8.976000; 	2 	: 	2.172000; 	3 	: 	1.554000; 	4 	: 	3.126000; 	5 	: 	2.832000; 	
6 	: 	5.178000; 	7 	: 	12.978000; 	8 	: 	6.798000; 	9 	: 	10.104000; 	10 	: 	1.974000; 	
11 	: 	0.810000; 	12 	: 	1.830000; 	13 	: 	0.780000; 	14 	: 	0.798000; 	15 	: 	3.660000; 	
16 	: 	3.732000; 	17 	: 	3.774000; 	18 	: 	7.878000; 	19 	: 	3.342000; 	20 	: 	1.776000; 	
21 	: 	4.158000; 	23 	: 	1.806000; 	24 	: 	1.116000; 	25 	: 	2.520000; 	26 	: 	2.550000; 	
27 	: 	2.142000; 	28 	: 	1.152000; 	29 	: 	6.438000; 	30 	: 	3.918000; 	31 	: 	5.460000; 	
32 	: 	4.740000; 	33 	: 	2.208000; 	34 	: 	1.596000; 	35 	: 	4.302000; 	36 	: 	2.058000; 	

Origin 23 
1 	: 	12.534000; 	2 	: 	3.384000; 	3 	: 	2.406000; 	4 	: 	4.242000; 	5 	: 	4.548000; 	
6 	: 	6.492000; 	7 	: 	18.198000; 	8 	: 	8.280000; 	9 	: 	12.990000; 	10 	: 	2.778000; 	
11 	: 	1.182000; 	12 	: 	2.676000; 	13 	: 	1.020000; 	14 	: 	1.188000; 	15 	: 	5.202000; 	
16 	: 	5.436000; 	17 	: 	5.310000; 	18 	: 	11.274000; 	19 	: 	5.472000; 	20 	: 	2.622000; 	
21 	: 	5.874000; 	22 	: 	1.800000; 	24 	: 	1.488000; 	25 	: 	3.648000; 	26 	: 	3.648000; 	
27 	: 	3.198000; 	28 	: 	1.584000; 	29 	: 	9.426000; 	30 	: 	6.180000; 	31 	: 	6.804000; 	
32 	: 	7.818000; 	33 	: 	2.526000; 	34 	: 	2.640000; 	35 	: 	6.144000; 	36 	: 	2.982000; 	

Origin 24 
1 	: 	8.184000; 	2 	: 	0.792000; 	3 	: 	1.350000; 	4 	: 	3.168000; 	5 	: 	3.942000; 	
6 	: 	2.346000; 	7 	: 	2.412000; 	8 	: 	4.380000; 	9 	: 	1.362000; 	10 	: 	21.708000; 	
11 	: 	3.480000; 	12 	: 	28.164000; 	13 	: 	12.930000; 	14 	: 	4.764000; 	15 	: 	2.538000; 	
16 	: 	1.458000; 	17 	: 	0.570000; 	18 	: 	0.804000; 	19 	: 	3.648000; 	20 	: 	2.154000; 	
21 	: 	4.008000; 	22 	: 	1.584000; 	23 	: 	2.436000; 	25 	: 	5.814000; 	26 	: 	16.260000; 	
27 	: 	11.772000; 	28 	: 	18.672000; 	29 	: 	1.644000; 	30 	: 	1.344000; 	31 	: 	2.370000; 	
32 	: 	5.580000; 	33 	: 	1.926000; 	34 	: 	2.520000; 	35 	: 	3.690000; 	36 	: 	0.780000; 	

Origin 25 
1 	: 	15.900000; 	2 	: 	2.670000; 	3 	: 	3.414000; 	4 	: 	7.860000; 	5 	: 	9.150000; 	
6 	: 	6.396000; 	7 	: 	7.338000; 	8 	: 	10.788000; 	9 	: 	4.068000; 	10 	: 	58.404000; 	
11 	: 	12.156000; 	12 	: 	84.246000; 	13 	: 	36.462000; 	14 	: 	16.002000; 	15 	: 	6.738000; 	
16 	: 	6.126000; 	17 	: 	1.788000; 	18 	: 	3.288000; 	19 	: 	8.334000; 	20 	: 	4.560000; 	
21 	: 	8.160000; 	22 	: 	3.672000; 	23 	: 	5.508000; 	24 	: 	6.546000; 	26 	: 	46.224000; 	
27 	: 	35.994000; 	28 	: 	54.900000; 	29 	: 	4.452000; 	30 	: 	3.450000; 	31 	: 	5.316000; 	
32 	: 	12.504000; 	33 	: 	3.828000; 	34 	: 	15.480000; 	35 	: 	9.786000; 	36 	: 	1.632000; 	

Origin 26 
1 	: 	14.820000; 	2 	: 	3.222000; 	3 	: 	3.282000; 	4 	: 	7.494000; 	5 	: 	8.124000; 	
6 	: 	7.020000; 	7 	: 	10.350000; 	8 	: 	10.818000; 	9 	: 	6.780000; 	10 	: 	75.864000; 	
11 	: 	21.162000; 	12 	: 	65.778000; 	13 	: 	33.534000; 	14 	: 	21.900000; 	15 	: 	5.802000; 	
16 	: 	4.782000; 	17 	: 	3.138000; 	18 	: 	6.354000; 	19 	: 	8.118000; 	20 	: 	4.218000; 	
21 	: 	7.848000; 	22 	: 	3.480000; 	23 	: 	4.788000; 	24 	: 	18.054000; 	25 	: 	51.120000; 	
27 	: 	52.170000; 	28 	: 	45.024000; 	29 	: 	5.094000; 	30 	: 	3.654000; 	31 	: 	6.492000; 	
32 	: 	11.436000; 	33 	: 	3.792000; 	34 	: 	38.958000; 	35 	: 	7.704000; 	36 	: 	1.998000; 	

Origin 27 
1 	: 	13.626000; 	2 	: 	2.250000; 	3 	: 	2.580000; 	4 	: 	6.594000; 	5 	: 	6.768000; 	
6 	: 	4.566000; 	7 	: 	7.470000; 	8 	: 	9.696000; 	9 	: 	5.496000; 	10 	: 	39.252000; 	
11 	: 	9.858000; 	12 	: 	65.112000; 	13 	: 	26.274000; 	14 	: 	18.858000; 	15 	: 	5.790000; 	
16 	: 	4.428000; 	17 	: 	1.986000; 	18 	: 	3.762000; 	19 	: 	6.660000; 	20 	: 	3.780000; 	
21 	: 	6.792000; 	22 	: 	2.964000; 	23 	: 	4.434000; 	24 	: 	13.020000; 	25 	: 	39.168000; 	
26 	: 	50.472000; 	28 	: 	35.760000; 	29 	: 	4.800000; 	30 	: 	3.672000; 	31 	: 	4.260000; 	
32 	: 	9.204000; 	33 	: 	2.832000; 	34 	: 	17.532000; 	35 	: 	8.058000; 	36 	: 	1.428000; 	

Origin 28 
1 	: 	4.776000; 	2 	: 	1.518000; 	3 	: 	1.338000; 	4 	: 	2.868000; 	5 	: 	2.310000; 	
6 	: 	3.888000; 	7 	: 	7.548000; 	8 	: 	5.124000; 	9 	: 	6.666000; 	10 	: 	36.066000; 	
11 	: 	14.586000; 	12 	: 	27.420000; 	13 	: 	10.824000; 	14 	: 	14.454000; 	15 	: 	2.478000; 	
16 	: 	2.058000; 	17 	: 	1.704000; 	18 	: 	3.666000; 	19 	: 	2.490000; 	20 	: 	1.446000; 	
21 	: 	1.980000; 	22 	: 	1.152000; 	23 	: 	1.698000; 	24 	: 	20.952000; 	25 	: 	63.426000; 	
26 	: 	51.024000; 	27 	: 	41.238000; 	29 	: 	3.858000; 	30 	: 	2.886000; 	31 	: 	1.872000; 	
32 	: 	3.066000; 	33 	: 	0.660000; 	34 	: 	37.398000; 	35 	: 	3.426000; 	36 	: 	0.714000; 	

Origin 29 
1 	: 	31.008000; 	2 	: 	4.854000; 	3 	: 	5.400000; 	4 	: 	13.482000; 	5 	: 	11.892000; 	
6 	: 	12.420000; 	7 	: 	19.050000; 	8 	: 	17.238000; 	9 	: 	12.312000; 	10 	: 	6.258000; 	
11 	: 	1.722000; 	12 	: 	9.246000; 	13 	: 	4.110000; 	14 	: 	2.370000; 	15 	: 	8.214000; 	
16 	: 	6.882000; 	17 	: 	4.638000; 	18 	: 	8.532000; 	19 	: 	12.930000; 	20 	: 	8.166000; 	
21 	: 	13.398000; 	22 	: 	5.982000; 	23 	: 	8.802000; 	24 	: 	1.200000; 	25 	: 	3.438000; 	
26 	: 	4.944000; 	27 	: 	4.344000; 	28 	: 	4.980000; 	30 	: 	6.372000; 	31 	: 	7.050000; 	
32 	: 	15.612000; 	33 	: 	4.314000; 	34 	: 	2.538000; 	35 	: 	13.374000; 	36 	: 	2.982000; 	

Origin 30 
1 	: 	22.428000; 	2 	: 	3.600000; 	3 	: 	4.122000; 	4 	: 	10.176000; 	5 	: 	8.634000; 	
6 	: 	10.146000; 	7 	: 	16.626000; 	8 	: 	16.332000; 	9 	: 	11.640000; 	10 	: 	4.098000; 	
11 	: 	1.176000; 	12 	: 	6.558000; 	13 	: 	2.562000; 	14 	: 	1.542000; 	15 	: 	6.552000; 	
16 	: 	5.286000; 	17 	: 	3.324000; 	18 	: 	6.354000; 	19 	: 	9.660000; 	20 	: 	6.138000; 	
21 	: 	9.828000; 	22 	: 	4.422000; 	23 	: 	7.050000; 	24 	: 	0.840000; 	25 	: 	2.454000; 	
26 	: 	3.390000; 	27 	: 	3.150000; 	28 	: 	3.390000; 	29 	: 	7.182000; 	31 	: 	4.620000; 	
32 	: 	11.214000; 	33 	: 	2.826000; 	34 	: 	2.028000; 	35 	: 	9.960000; 	36 	: 	2.196000; 	

Origin 31 
1 	: 	28.368000; 	2 	: 	5.622000; 	3 	: 	5.028000; 	4 	: 	11.196000; 	5 	: 	12.156000; 	
6 	: 	10.068000; 	7 	: 	15.204000; 	8 	: 	16.290000; 	9 	: 	12.270000; 	10 	: 	4.332000; 	
11 	: 	1.236000; 	12 	: 	2.604000; 	13 	: 	1.998000; 	14 	: 	1.026000; 	15 	: 	6.300000; 	
16 	: 	9.192000; 	17 	: 	5.346000; 	18 	: 	11.016000; 	19 	: 	14.178000; 	20 	: 	7.014000; 	
21 	: 	15.600000; 	22 	: 	5.640000; 	23 	: 	6.900000; 	24 	: 	1.710000; 	25 	: 	4.002000; 	
26 	: 	5.652000; 	27 	: 	3.498000; 	28 	: 	2.112000; 	29 	: 	7.578000; 	30 	: 	4.272000; 	
32 	: 	15.648000; 	33 	: 	5.280000; 	34 	: 	2.514000; 	35 	: 	6.660000; 	36 	: 	3.384000; 	

Origin 32 
1 	: 	28.698000; 	2 	: 	6.114000; 	3 	: 	5.370000; 	4 	: 	13.050000; 	5 	: 	7.314000; 	
6 	: 	17.232000; 	7 	: 	36.816000; 	8 	: 	24.558000; 	9 	: 	31.512000; 	10 	: 	5.118000; 	
11 	: 	2.172000; 	12 	: 	4.650000; 	13 	: 	1.542000; 	14 	: 	1.908000; 	15 	: 	8.838000; 	
16 	: 	10.692000; 	17 	: 	7.710000; 	18 	: 	20.466000; 	19 	: 	10.392000; 	20 	: 	6.894000; 	
21 	: 	11.406000; 	22 	: 	4.704000; 	23 	: 	7.662000; 	24 	: 	3.402000; 	25 	: 	8.124000; 	
26 	: 	8.790000; 	27 	: 	6.816000; 	28 	: 	3.132000; 	29 	: 	16.704000; 	30 	: 	9.744000; 	
31 	: 	15.432000; 	33 	: 	5.952000; 	34 	: 	5.982000; 	35 	: 	9.768000; 	36 	: 	5.274000; 	

Origin 33 
1 	: 	10.926000; 	2 	: 	3.240000; 	3 	: 	2.388000; 	4 	: 	4.686000; 	5 	: 	4.278000; 	
6 	: 	5.466000; 	7 	: 	10.476000; 	8 	: 	7.680000; 	9 	: 	9.690000; 	10 	: 	1.596000; 	
11 	: 	0.720000; 	12 	: 	0.612000; 	13 	: 	0.504000; 	14 	: 	0.498000; 	15 	: 	2.244000; 	
16 	: 	4.134000; 	17 	: 	4.452000; 	18 	: 	10.686000; 	19 	: 	5.736000; 	20 	: 	2.766000; 	
21 	: 	5.154000; 	22 	: 	2.220000; 	23 	: 	2.538000; 	24 	: 	1.356000; 	25 	: 	2.640000; 	
26 	: 	2.550000; 	27 	: 	1.878000; 	28 	: 	0.504000; 	29 	: 	4.674000; 	30 	: 	2.466000; 	
31 	: 	5.106000; 	32 	: 	5.988000; 	34 	: 	1.944000; 	35 	: 	2.166000; 	36 	: 	1.728000; 	

Origin 34 
1 	: 	14.328000; 	2 	: 	1.260000; 	3 	: 	1.518000; 	4 	: 	4.482000; 	5 	: 	5.220000; 	
6 	: 	3.144000; 	7 	: 	4.332000; 	8 	: 	8.520000; 	9 	: 	2.916000; 	10 	: 	38.544000; 	
11 	: 	5.430000; 	12 	: 	51.072000; 	13 	: 	25.770000; 	14 	: 	11.262000; 	15 	: 	5.286000; 	
16 	: 	2.940000; 	17 	: 	1.212000; 	18 	: 	1.812000; 	19 	: 	6.360000; 	20 	: 	3.750000; 	
21 	: 	7.332000; 	22 	: 	2.496000; 	23 	: 	3.834000; 	24 	: 	2.652000; 	25 	: 	15.078000; 	
26 	: 	33.666000; 	27 	: 	15.396000; 	28 	: 	31.200000; 	29 	: 	3.684000; 	30 	: 	2.802000; 	
31 	: 	3.774000; 	32 	: 	8.628000; 	33 	: 	3.102000; 	35 	: 	7.302000; 	36 	: 	1.230000; 	

Origin 35 
1 	: 	17.946000; 	2 	: 	5.898000; 	3 	: 	5.076000; 	4 	: 	11.106000; 	5 	: 	7.242000; 	
6 	: 	15.648000; 	7 	: 	29.256000; 	8 	: 	22.176000; 	9 	: 	27.684000; 	10 	: 	4.770000; 	
11 	: 	2.124000; 	12 	: 	5.250000; 	13 	: 	1.158000; 	14 	: 	1.554000; 	15 	: 	5.850000; 	
16 	: 	7.200000; 	17 	: 	6.882000; 	18 	: 	14.388000; 	19 	: 	9.786000; 	20 	: 	5.412000; 	
21 	: 	7.638000; 	22 	: 	4.254000; 	23 	: 	5.976000; 	24 	: 	2.244000; 	25 	: 	6.306000; 	
26 	: 	5.766000; 	27 	: 	5.838000; 	28 	: 	3.342000; 	29 	: 	14.328000; 	30 	: 	8.580000; 	
31 	: 	6.558000; 	32 	: 	9.708000; 	33 	: 	2.148000; 	34 	: 	5.034000; 	36 	: 	3.240000; 	

Origin 36 
1 	: 	12.408000; 	2 	: 	1.902000; 	3 	: 	2.082000; 	4 	: 	4.134000; 	5 	: 	4.416000; 	
6 	: 	3.618000; 	7 	: 	6.018000; 	8 	: 	6.306000; 	9 	: 	5.058000; 	10 	: 	1.452000; 	
11 	: 	0.420000; 	12 	: 	1.296000; 	13 	: 	0.756000; 	14 	: 	0.402000; 	15 	: 	2.526000; 	
16 	: 	3.522000; 	17 	: 	1.692000; 	18 	: 	4.446000; 	19 	: 	4.062000; 	20 	: 	3.234000; 	
21 	: 	4.212000; 	22 	: 	2.076000; 	23 	: 	3.180000; 	24 	: 	0.486000; 	25 	: 	1.170000; 	
26 	: 	2.040000; 	27 	: 	1.332000; 	28 	: 	0.960000; 	29 	: 	3.138000; 	30 	: 	2.124000; 	
31 	: 	3.378000; 	32 	: 	5.670000; 	33 	: 	1.746000; 	34 	: 	0.906000; 	35 	: 	3.492000; 	
