<NUMBER OF ZONES> 1525									  		
<NUMBER OF NODES> 13389									  		
<FIRST THRU NODE> 1526									  		
<NUMBER OF LINKS> 40003									  		
 									 		
<LOCATION> "Philadelphia, PA"
<SCENARIO> "Build"								  		
<END OF METADATA>									  		
 											

~	from	to	capacity	length	ftime	B	Power	speed	toll	type	
	1	4067	999999	0.12	0	0.15	4	0.4	0	7	;
	1	4073	999999	0.12	0	0.15	4	0.4	0	7	;
	1	4075	999999	0.12	0	0.15	4	0.4	0	7	;
	1	8400	999999	0.12	0	0.15	4	0.4	0	7	;
	2	4059	999999	0.12	0	0.15	4	0.4	0	7	;
	2	4062	999999	0.12	0	0.15	4	0.4	0	7	;
	2	4063	999999	0.12	0	0.15	4	0.4	0	7	;
	2	4340	999999	0.12	0	0.15	4	0.4	0	7	;
	3	3590	999999	0.12	0	0.15	4	0.4	0	7	;
	3	3591	999999	0.12	0	0.15	4	0.4	0	7	;
	3	4053	999999	0.12	0	0.15	4	0.4	0	7	;
	3	4055	999999	0.12	0	0.15	4	0.4	0	7	;
	4	3592	999999	0.12	0	0.15	4	0.4	0	7	;
	4	3593	999999	0.12	0	0.15	4	0.4	0	7	;
	4	4145	999999	0.12	0	0.15	4	0.4	0	7	;
	5	4140	999999	0.12	0	0.15	4	0.4	0	7	;
	5	4141	999999	0.12	0	0.15	4	0.4	0	7	;
	5	4198	999999	0.12	0	0.15	4	0.4	0	7	;
	5	4199	999999	0.12	0	0.15	4	0.4	0	7	;
	6	3594	999999	0.12	0	0.15	4	0.4	0	7	;
	6	3595	999999	0.12	0	0.15	4	0.4	0	7	;
	6	3596	999999	0.12	0	0.15	4	0.4	0	7	;
	6	4195	999999	0.12	0	0.15	4	0.4	0	7	;
	7	3604	999999	0.12	0	0.15	4	0.4	0	7	;
	7	4147	999999	0.12	0	0.15	4	0.4	0	7	;
	7	4191	999999	0.12	0	0.15	4	0.4	0	7	;
	8	3605	999999	0.12	0	0.15	4	0.4	0	7	;
	8	4149	999999	0.12	0	0.15	4	0.4	0	7	;
	8	4151	999999	0.12	0	0.15	4	0.4	0	7	;
	8	4189	999999	0.12	0	0.15	4	0.4	0	7	;
	9	3606	999999	0.12	0	0.15	4	0.4	0	7	;
	9	3607	999999	0.12	0	0.15	4	0.4	0	7	;
	9	4186	999999	0.12	0	0.15	4	0.4	0	7	;
	9	4234	999999	0.12	0	0.15	4	0.4	0	7	;
	10	3608	999999	0.12	0	0.15	4	0.4	0	7	;
	10	4181	999999	0.12	0	0.15	4	0.4	0	7	;
	10	4183	999999	0.12	0	0.15	4	0.4	0	7	;
	10	4185	999999	0.12	0	0.15	4	0.4	0	7	;
	11	3609	999999	0.12	0	0.15	4	0.4	0	7	;
	11	3610	999999	0.12	0	0.15	4	0.4	0	7	;
	11	4154	999999	0.12	0	0.15	4	0.4	0	7	;
	12	3939	999999	0.12	0	0.15	4	0.4	0	7	;
	12	3955	999999	0.12	0	0.15	4	0.4	0	7	;
	12	3957	999999	0.12	0	0.15	4	0.4	0	7	;
	12	3959	999999	0.12	0	0.15	4	0.4	0	7	;
	13	3611	999999	0.12	0	0.15	4	0.4	0	7	;
	13	3612	999999	0.12	0	0.15	4	0.4	0	7	;
	13	4158	999999	0.12	0	0.15	4	0.4	0	7	;
	14	4091	999999	0.12	0	0.15	4	0.4	0	7	;
	14	4160	999999	0.12	0	0.15	4	0.4	0	7	;
	14	4161	999999	0.12	0	0.15	4	0.4	0	7	;
	15	3654	999999	0.12	0	0.15	4	0.4	0	7	;
	15	3697	999999	0.12	0	0.15	4	0.4	0	7	;
	15	3698	999999	0.12	0	0.15	4	0.4	0	7	;
	15	3699	999999	0.12	0	0.15	4	0.4	0	7	;
	16	3704	999999	0.12	0	0.15	4	0.4	0	7	;
	16	4041	999999	0.12	0	0.15	4	0.4	0	7	;
	16	4044	999999	0.12	0	0.15	4	0.4	0	7	;
	17	3705	999999	0.12	0	0.15	4	0.4	0	7	;
	17	4031	999999	0.12	0	0.15	4	0.4	0	7	;
	17	4033	999999	0.12	0	0.15	4	0.4	0	7	;
	18	3706	999999	0.12	0	0.15	4	0.4	0	7	;
	18	3707	999999	0.12	0	0.15	4	0.4	0	7	;
	18	4205	999999	0.12	0	0.15	4	0.4	0	7	;
	19	4132	999999	0.12	0	0.15	4	0.4	0	7	;
	19	4134	999999	0.12	0	0.15	4	0.4	0	7	;
	19	4136	999999	0.12	0	0.15	4	0.4	0	7	;
	19	4219	999999	0.12	0	0.15	4	0.4	0	7	;
	20	4281	999999	0.2	0	0.15	4	0.4	0	7	;
	20	4282	999999	0.2	0	0.15	4	0.4	0	7	;
	20	4283	999999	0.2	0	0.15	4	0.4	0	7	;
	20	4300	999999	0.2	0	0.15	4	0.4	0	7	;
	21	3708	999999	0.12	0	0.15	4	0.4	0	7	;
	21	3709	999999	0.12	0	0.15	4	0.4	0	7	;
	21	3710	999999	0.12	0	0.15	4	0.4	0	7	;
	21	3711	999999	0.12	0	0.15	4	0.4	0	7	;
	22	3712	999999	0.2	0	0.15	4	0.4	0	7	;
	22	4272	999999	0.2	0	0.15	4	0.4	0	7	;
	22	4273	999999	0.2	0	0.15	4	0.4	0	7	;
	23	3714	999999	0.2	0	0.15	4	0.4	0	7	;
	23	3715	999999	0.2	0	0.15	4	0.4	0	7	;
	23	3716	999999	0.2	0	0.15	4	0.4	0	7	;
	23	3717	999999	0.2	0	0.15	4	0.4	0	7	;
	24	3718	999999	0.2	0	0.15	4	0.4	0	7	;
	24	4227	999999	0.2	0	0.15	4	0.4	0	7	;
	24	4270	999999	0.2	0	0.15	4	0.4	0	7	;
	24	4386	999999	0.2	0	0.15	4	0.4	0	7	;
	25	3719	999999	0.2	0	0.15	4	0.4	0	7	;
	25	3720	999999	0.2	0	0.15	4	0.4	0	7	;
	25	3721	999999	0.2	0	0.15	4	0.4	0	7	;
	25	4268	999999	0.2	0	0.15	4	0.4	0	7	;
	26	3722	999999	0.12	0	0.15	4	0.4	0	7	;
	26	3723	999999	0.12	0	0.15	4	0.4	0	7	;
	26	3724	999999	0.12	0	0.15	4	0.4	0	7	;
	26	3725	999999	0.12	0	0.15	4	0.4	0	7	;
	27	3726	999999	0.12	0	0.15	4	0.4	0	7	;
	27	4230	999999	0.12	0	0.15	4	0.4	0	7	;
	27	4264	999999	0.12	0	0.15	4	0.4	0	7	;
	27	4266	999999	0.12	0	0.15	4	0.4	0	7	;
	28	3728	999999	0.2	0	0.15	4	0.4	0	7	;
	28	3729	999999	0.2	0	0.15	4	0.4	0	7	;
	29	3731	999999	0.12	0	0.15	4	0.4	0	7	;
	29	3732	999999	0.12	0	0.15	4	0.4	0	7	;
	29	3733	999999	0.12	0	0.15	4	0.4	0	7	;
	29	3734	999999	0.12	0	0.15	4	0.4	0	7	;
	30	3735	999999	0.12	0	0.15	4	0.4	0	7	;
	30	3736	999999	0.12	0	0.15	4	0.4	0	7	;
	30	3737	999999	0.12	0	0.15	4	0.4	0	7	;
	30	4260	999999	0.12	0	0.15	4	0.4	0	7	;
	31	4312	999999	0.2	0	0.15	4	0.4	0	7	;
	31	4314	999999	0.2	0	0.15	4	0.4	0	7	;
	31	4375	999999	0.2	0	0.15	4	0.4	0	7	;
	31	4376	999999	0.2	0	0.15	4	0.4	0	7	;
	32	3738	999999	0.12	0	0.15	4	0.4	0	7	;
	32	3740	999999	0.12	0	0.15	4	0.4	0	7	;
	32	3741	999999	0.12	0	0.15	4	0.4	0	7	;
	32	3742	999999	0.12	0	0.15	4	0.4	0	7	;
	33	3744	999999	0.2	0	0.15	4	0.4	0	7	;
	33	3745	999999	0.2	0	0.15	4	0.4	0	7	;
	33	3746	999999	0.2	0	0.15	4	0.4	0	7	;
	33	4251	999999	0.2	0	0.15	4	0.4	0	7	;
	34	3747	999999	0.2	0	0.15	4	0.4	0	7	;
	34	3748	999999	0.2	0	0.15	4	0.4	0	7	;
	34	3749	999999	0.2	0	0.15	4	0.4	0	7	;
	34	3750	999999	0.2	0	0.15	4	0.4	0	7	;
	35	4248	999999	0.2	0	0.15	4	0.4	0	7	;
	35	4320	999999	0.2	0	0.15	4	0.4	0	7	;
	35	4322	999999	0.2	0	0.15	4	0.4	0	7	;
	36	4247	999999	0.12	0	0.15	4	0.4	0	7	;
	36	8401	999999	0.12	0	0.15	4	0.4	0	7	;
	36	8402	999999	0.12	0	0.15	4	0.4	0	7	;
	37	3751	999999	0.2	0	0.15	4	0.4	0	7	;
	37	3752	999999	0.2	0	0.15	4	0.4	0	7	;
	37	3753	999999	0.2	0	0.15	4	0.4	0	7	;
	37	4241	999999	0.2	0	0.15	4	0.4	0	7	;
	38	3754	999999	0.2	0	0.15	4	0.4	0	7	;
	38	3755	999999	0.2	0	0.15	4	0.4	0	7	;
	38	3756	999999	0.2	0	0.15	4	0.4	0	7	;
	38	4170	999999	0.2	0	0.15	4	0.4	0	7	;
	39	4171	999999	0.12	0	0.15	4	0.4	0	7	;
	39	4173	999999	0.12	0	0.15	4	0.4	0	7	;
	39	4245	999999	0.12	0	0.15	4	0.4	0	7	;
	40	3739	999999	0.2	0	0.15	4	0.4	0	7	;
	40	3757	999999	0.2	0	0.15	4	0.4	0	7	;
	40	3758	999999	0.2	0	0.15	4	0.4	0	7	;
	40	3759	999999	0.2	0	0.15	4	0.4	0	7	;
	41	3760	999999	0.12	0	0.15	4	0.4	0	7	;
	41	3761	999999	0.12	0	0.15	4	0.4	0	7	;
	41	3762	999999	0.12	0	0.15	4	0.4	0	7	;
	41	3763	999999	0.12	0	0.15	4	0.4	0	7	;
	42	3764	999999	0.2	0	0.15	4	0.4	0	7	;
	42	3765	999999	0.2	0	0.15	4	0.4	0	7	;
	42	3766	999999	0.2	0	0.15	4	0.4	0	7	;
	42	3767	999999	0.2	0	0.15	4	0.4	0	7	;
	43	3768	999999	0.12	0	0.15	4	0.4	0	7	;
	43	3769	999999	0.12	0	0.15	4	0.4	0	7	;
	43	3770	999999	0.12	0	0.15	4	0.4	0	7	;
	43	3910	999999	0.12	0	0.15	4	0.4	0	7	;
	44	3922	999999	0.12	0	0.15	4	0.4	0	7	;
	44	3924	999999	0.12	0	0.15	4	0.4	0	7	;
	44	3926	999999	0.12	0	0.15	4	0.4	0	7	;
	44	3928	999999	0.12	0	0.15	4	0.4	0	7	;
	45	3989	999999	0.12	0	0.15	4	0.4	0	7	;
	45	4069	999999	0.12	0	0.15	4	0.4	0	7	;
	45	4070	999999	0.12	0	0.15	4	0.4	0	7	;
	45	4072	999999	0.12	0	0.15	4	0.4	0	7	;
	46	3771	999999	0.12	0	0.15	4	0.4	0	7	;
	46	3772	999999	0.12	0	0.15	4	0.4	0	7	;
	46	3991	999999	0.12	0	0.15	4	0.4	0	7	;
	46	3992	999999	0.12	0	0.15	4	0.4	0	7	;
	47	3773	999999	0.12	0	0.15	4	0.4	0	7	;
	47	3774	999999	0.12	0	0.15	4	0.4	0	7	;
	47	4057	999999	0.12	0	0.15	4	0.4	0	7	;
	47	4335	999999	0.12	0	0.15	4	0.4	0	7	;
	48	3775	999999	0.2	0	0.15	4	0.4	0	7	;
	49	3776	999999	0.2	0	0.15	4	0.4	0	7	;
	49	4015	999999	0.2	0	0.15	4	0.4	0	7	;
	49	4025	999999	0.2	0	0.15	4	0.4	0	7	;
	50	3777	999999	0.2	0	0.15	4	0.4	0	7	;
	50	3778	999999	0.2	0	0.15	4	0.4	0	7	;
	50	4019	999999	0.2	0	0.15	4	0.4	0	7	;
	51	3778	999999	0.12	0	0.15	4	0.4	0	7	;
	51	3779	999999	0.12	0	0.15	4	0.4	0	7	;
	51	3780	999999	0.12	0	0.15	4	0.4	0	7	;
	51	4027	999999	0.12	0	0.15	4	0.4	0	7	;
	52	3781	999999	0.2	0	0.15	4	0.4	0	7	;
	52	3782	999999	0.2	0	0.15	4	0.4	0	7	;
	52	3783	999999	0.2	0	0.15	4	0.4	0	7	;
	53	4020	999999	0.2	0	0.15	4	0.4	0	7	;
	54	4213	999999	0.2	0	0.15	4	0.4	0	7	;
	55	3347	999999	0.25	0	0.15	4	0.4	0	7	;
	55	3784	999999	0.25	0	0.15	4	0.4	0	7	;
	55	3785	999999	0.25	0	0.15	4	0.4	0	7	;
	55	5649	999999	0.25	0	0.15	4	0.4	0	7	;
	56	3786	999999	0.25	0	0.15	4	0.4	0	7	;
	56	3787	999999	0.25	0	0.15	4	0.4	0	7	;
	56	3788	999999	0.25	0	0.15	4	0.4	0	7	;
	56	3789	999999	0.25	0	0.15	4	0.4	0	7	;
	57	3790	999999	0.25	0	0.15	4	0.4	0	7	;
	57	3791	999999	0.25	0	0.15	4	0.4	0	7	;
	57	3792	999999	0.25	0	0.15	4	0.4	0	7	;
	57	3793	999999	0.25	0	0.15	4	0.4	0	7	;
	58	3840	999999	0.25	0	0.15	4	0.4	0	7	;
	58	3849	999999	0.25	0	0.15	4	0.4	0	7	;
	58	3857	999999	0.25	0	0.15	4	0.4	0	7	;
	58	4296	999999	0.25	0	0.15	4	0.4	0	7	;
	59	4359	999999	0.25	0	0.15	4	0.4	0	7	;
	60	3859	999999	0.25	0	0.15	4	0.4	0	7	;
	60	3860	999999	0.25	0	0.15	4	0.4	0	7	;
	60	3861	999999	0.25	0	0.15	4	0.4	0	7	;
	61	4543	999999	0.25	0	0.15	4	0.4	0	7	;
	62	3863	999999	0.25	0	0.15	4	0.4	0	7	;
	62	3864	999999	0.25	0	0.15	4	0.4	0	7	;
	62	3865	999999	0.25	0	0.15	4	0.4	0	7	;
	62	3866	999999	0.25	0	0.15	4	0.4	0	7	;
	63	3352	999999	0.25	0	0.15	4	0.4	0	7	;
	63	3867	999999	0.25	0	0.15	4	0.4	0	7	;
	63	3868	999999	0.25	0	0.15	4	0.4	0	7	;
	63	3869	999999	0.25	0	0.15	4	0.4	0	7	;
	64	3871	999999	0.25	0	0.15	4	0.4	0	7	;
	64	3872	999999	0.25	0	0.15	4	0.4	0	7	;
	64	3873	999999	0.25	0	0.15	4	0.4	0	7	;
	64	3874	999999	0.25	0	0.15	4	0.4	0	7	;
	65	3875	999999	0.25	0	0.15	4	0.4	0	7	;
	65	3876	999999	0.25	0	0.15	4	0.4	0	7	;
	65	3877	999999	0.25	0	0.15	4	0.4	0	7	;
	65	3879	999999	0.25	0	0.15	4	0.4	0	7	;
	66	3881	999999	0.25	0	0.15	4	0.4	0	7	;
	66	3882	999999	0.25	0	0.15	4	0.4	0	7	;
	66	3883	999999	0.25	0	0.15	4	0.4	0	7	;
	66	3884	999999	0.25	0	0.15	4	0.4	0	7	;
	67	3885	999999	0.25	0	0.15	4	0.4	0	7	;
	67	3886	999999	0.25	0	0.15	4	0.4	0	7	;
	67	3888	999999	0.25	0	0.15	4	0.4	0	7	;
	67	13291	999999	0.25	0	0.15	4	0.4	0	7	;
	68	3889	999999	0.25	0	0.15	4	0.4	0	7	;
	68	3890	999999	0.25	0	0.15	4	0.4	0	7	;
	68	3891	999999	0.25	0	0.15	4	0.4	0	7	;
	68	3892	999999	0.25	0	0.15	4	0.4	0	7	;
	69	5666	999999	0.25	0	0.15	4	0.4	0	7	;
	69	5667	999999	0.25	0	0.15	4	0.4	0	7	;
	69	5668	999999	0.25	0	0.15	4	0.4	0	7	;
	69	5669	999999	0.25	0	0.15	4	0.4	0	7	;
	70	4544	999999	0.25	0	0.15	4	0.4	0	7	;
	71	4545	999999	0.5	0	0.15	4	0.4	0	7	;
	71	5671	999999	0.5	0	0.15	4	0.4	0	7	;
	71	5672	999999	0.5	0	0.15	4	0.4	0	7	;
	72	4547	999999	0.5	0	0.15	4	0.4	0	7	;
	73	5673	999999	0.25	0	0.15	4	0.4	0	7	;
	73	5675	999999	0.25	0	0.15	4	0.4	0	7	;
	73	5676	999999	0.25	0	0.15	4	0.4	0	7	;
	73	5678	999999	0.25	0	0.15	4	0.4	0	7	;
	74	3358	999999	0.25	0	0.15	4	0.4	0	7	;
	74	5679	999999	0.25	0	0.15	4	0.4	0	7	;
	74	5680	999999	0.25	0	0.15	4	0.4	0	7	;
	74	5681	999999	0.25	0	0.15	4	0.4	0	7	;
	75	5682	999999	0.2	0	0.15	4	0.4	0	7	;
	75	5683	999999	0.2	0	0.15	4	0.4	0	7	;
	75	5684	999999	0.2	0	0.15	4	0.4	0	7	;
	75	5685	999999	0.2	0	0.15	4	0.4	0	7	;
	76	3363	999999	0.25	0	0.15	4	0.4	0	7	;
	76	5686	999999	0.25	0	0.15	4	0.4	0	7	;
	76	5687	999999	0.25	0	0.15	4	0.4	0	7	;
	76	5688	999999	0.25	0	0.15	4	0.4	0	7	;
	77	3349	999999	0.25	0	0.15	4	0.4	0	7	;
	77	3350	999999	0.25	0	0.15	4	0.4	0	7	;
	77	3355	999999	0.25	0	0.15	4	0.4	0	7	;
	77	5690	999999	0.25	0	0.15	4	0.4	0	7	;
	78	3348	999999	0.25	0	0.15	4	0.4	0	7	;
	78	5691	999999	0.25	0	0.15	4	0.4	0	7	;
	78	5692	999999	0.25	0	0.15	4	0.4	0	7	;
	78	5693	999999	0.25	0	0.15	4	0.4	0	7	;
	79	5629	999999	0.25	0	0.15	4	0.4	0	7	;
	79	5694	999999	0.25	0	0.15	4	0.4	0	7	;
	79	5695	999999	0.25	0	0.15	4	0.4	0	7	;
	80	5696	999999	0.25	0	0.15	4	0.4	0	7	;
	80	5697	999999	0.25	0	0.15	4	0.4	0	7	;
	80	5698	999999	0.25	0	0.15	4	0.4	0	7	;
	81	5699	999999	0.5	0	0.15	4	0.4	0	7	;
	81	5700	999999	0.5	0	0.15	4	0.4	0	7	;
	82	4390	999999	0.25	0	0.15	4	0.4	0	7	;
	82	5701	999999	0.25	0	0.15	4	0.4	0	7	;
	82	5702	999999	0.25	0	0.15	4	0.4	0	7	;
	83	3362	999999	0.25	0	0.15	4	0.4	0	7	;
	83	5703	999999	0.25	0	0.15	4	0.4	0	7	;
	83	5704	999999	0.25	0	0.15	4	0.4	0	7	;
	83	5705	999999	0.25	0	0.15	4	0.4	0	7	;
	84	5706	999999	0.25	0	0.15	4	0.4	0	7	;
	84	5707	999999	0.25	0	0.15	4	0.4	0	7	;
	84	5708	999999	0.25	0	0.15	4	0.4	0	7	;
	85	5628	999999	0.25	0	0.15	4	0.4	0	7	;
	85	5709	999999	0.25	0	0.15	4	0.4	0	7	;
	85	5710	999999	0.25	0	0.15	4	0.4	0	7	;
	86	5627	999999	0.25	0	0.15	4	0.4	0	7	;
	86	5711	999999	0.25	0	0.15	4	0.4	0	7	;
	86	5712	999999	0.25	0	0.15	4	0.4	0	7	;
	87	3366	999999	0.25	0	0.15	4	0.4	0	7	;
	87	5713	999999	0.25	0	0.15	4	0.4	0	7	;
	87	5714	999999	0.25	0	0.15	4	0.4	0	7	;
	87	5715	999999	0.25	0	0.15	4	0.4	0	7	;
	88	5716	999999	0.25	0	0.15	4	0.4	0	7	;
	88	5717	999999	0.25	0	0.15	4	0.4	0	7	;
	89	5718	999999	0.5	0	0.15	4	0.4	0	7	;
	90	5622	999999	0.5	0	0.15	4	0.4	0	7	;
	91	5720	999999	0.5	0	0.15	4	0.4	0	7	;
	91	5721	999999	0.5	0	0.15	4	0.4	0	7	;
	91	13290	999999	0.25	0	0.15	4	0.4	0	7	;
	92	5626	999999	0.25	0	0.15	4	0.4	0	7	;
	92	5722	999999	0.25	0	0.15	4	0.4	0	7	;
	92	5723	999999	0.25	0	0.15	4	0.4	0	7	;
	93	5624	999999	0.5	0	0.15	4	0.4	0	7	;
	94	4458	999999	0.5	0	0.15	4	0.4	0	7	;
	94	5727	999999	0.5	0	0.15	4	0.4	0	7	;
	95	5724	999999	0.5	0	0.15	4	0.4	0	7	;
	95	5725	999999	0.5	0	0.15	4	0.4	0	7	;
	96	2912	999999	0.5	0	0.15	4	0.4	0	7	;
	96	4000	999999	0.5	0	0.15	4	0.4	0	7	;
	96	4001	999999	0.5	0	0.15	4	0.4	0	7	;
	96	4003	999999	0.5	0	0.15	4	0.4	0	7	;
	97	4534	999999	0.5	0	0.15	4	0.4	0	7	;
	98	5623	999999	0.25	0	0.15	4	0.4	0	7	;
	99	3370	999999	0.25	0	0.15	4	0.4	0	7	;
	100	5726	999999	0.5	0	0.15	4	0.4	0	7	;
	101	5727	999999	0.25	0	0.15	4	0.4	0	7	;
	101	5728	999999	0.25	0	0.15	4	0.4	0	7	;
	102	3313	999999	0.5	0	0.15	4	0.4	0	7	;
	102	9258	999999	0.5	0	0.15	4	0.4	0	7	;
	103	8619	999999	0.5	0	0.15	4	0.4	0	7	;
	104	1699	999999	0.5	0	0.15	4	0.4	0	7	;
	104	9206	999999	0.5	0	0.15	4	0.4	0	7	;
	105	2885	999999	0.5	0	0.15	4	0.4	0	7	;
	105	2952	999999	0.5	0	0.15	4	0.4	0	7	;
	106	3743	999999	0.5	0	0.15	4	0.4	0	7	;
	106	5729	999999	0.5	0	0.15	4	0.4	0	7	;
	107	4560	999999	0.5	0	0.15	4	0.4	0	7	;
	107	5730	999999	0.5	0	0.15	4	0.4	0	7	;
	107	6111	999999	0.5	0	0.15	4	0.4	0	7	;
	108	3380	999999	0.5	0	0.15	4	0.4	0	7	;
	108	5731	999999	0.5	0	0.15	4	0.4	0	7	;
	108	9256	999999	0.5	0	0.15	4	0.4	0	7	;
	109	5732	999999	0.5	0	0.15	4	0.4	0	7	;
	110	3376	999999	0.5	0	0.15	4	0.4	0	7	;
	110	5733	999999	0.5	0	0.15	4	0.4	0	7	;
	110	5734	999999	0.5	0	0.15	4	0.4	0	7	;
	111	4571	999999	0.25	0	0.15	4	0.4	0	7	;
	111	5735	999999	0.25	0	0.15	4	0.4	0	7	;
	111	5736	999999	0.25	0	0.15	4	0.4	0	7	;
	112	5737	999999	0.25	0	0.15	4	0.4	0	7	;
	112	5738	999999	0.25	0	0.15	4	0.4	0	7	;
	112	5739	999999	0.25	0	0.15	4	0.4	0	7	;
	113	3378	999999	0.25	0	0.15	4	0.4	0	7	;
	113	3379	999999	0.25	0	0.15	4	0.4	0	7	;
	113	6053	999999	0.25	0	0.15	4	0.4	0	7	;
	114	3377	999999	0.25	0	0.15	4	0.4	0	7	;
	114	5740	999999	0.25	0	0.15	4	0.4	0	7	;
	114	5741	999999	0.25	0	0.15	4	0.4	0	7	;
	115	5742	999999	0.25	0	0.15	4	0.4	0	7	;
	115	5743	999999	0.25	0	0.15	4	0.4	0	7	;
	115	5744	999999	0.25	0	0.15	4	0.4	0	7	;
	116	5745	999999	0.25	0	0.15	4	0.4	0	7	;
	116	5746	999999	0.25	0	0.15	4	0.4	0	7	;
	116	5747	999999	0.25	0	0.15	4	0.4	0	7	;
	117	5748	999999	0.25	0	0.15	4	0.4	0	7	;
	117	5749	999999	0.25	0	0.15	4	0.4	0	7	;
	117	5750	999999	0.25	0	0.15	4	0.4	0	7	;
	118	5751	999999	0.25	0	0.15	4	0.4	0	7	;
	118	5752	999999	0.25	0	0.15	4	0.4	0	7	;
	118	5753	999999	0.25	0	0.15	4	0.4	0	7	;
	119	4566	999999	0.5	0	0.15	4	0.4	0	7	;
	119	5754	999999	0.5	0	0.15	4	0.4	0	7	;
	119	5755	999999	0.5	0	0.15	4	0.4	0	7	;
	119	5756	999999	0.5	0	0.15	4	0.4	0	7	;
	120	5757	999999	0.25	0	0.15	4	0.4	0	7	;
	120	5758	999999	0.25	0	0.15	4	0.4	0	7	;
	120	5759	999999	0.25	0	0.15	4	0.4	0	7	;
	121	3375	999999	0.25	0	0.15	4	0.4	0	7	;
	121	5760	999999	0.25	0	0.15	4	0.4	0	7	;
	121	5761	999999	0.25	0	0.15	4	0.4	0	7	;
	121	5762	999999	0.25	0	0.15	4	0.4	0	7	;
	122	3373	999999	0.25	0	0.15	4	0.4	0	7	;
	122	3374	999999	0.25	0	0.15	4	0.4	0	7	;
	122	4594	999999	0.25	0	0.15	4	0.4	0	7	;
	122	5763	999999	0.25	0	0.15	4	0.4	0	7	;
	123	2931	999999	0.25	0	0.15	4	0.4	0	7	;
	123	5764	999999	0.25	0	0.15	4	0.4	0	7	;
	123	5765	999999	0.25	0	0.15	4	0.4	0	7	;
	124	5766	999999	0.25	0	0.15	4	0.4	0	7	;
	124	5767	999999	0.25	0	0.15	4	0.4	0	7	;
	124	5768	999999	0.25	0	0.15	4	0.4	0	7	;
	124	5769	999999	0.25	0	0.15	4	0.4	0	7	;
	125	2910	999999	0.25	0	0.15	4	0.4	0	7	;
	125	5770	999999	0.25	0	0.15	4	0.4	0	7	;
	125	5771	999999	0.25	0	0.15	4	0.4	0	7	;
	126	5772	999999	0.25	0	0.15	4	0.4	0	7	;
	126	5773	999999	0.25	0	0.15	4	0.4	0	7	;
	126	5774	999999	0.25	0	0.15	4	0.4	0	7	;
	127	5775	999999	0.25	0	0.15	4	0.4	0	7	;
	127	5776	999999	0.25	0	0.15	4	0.4	0	7	;
	127	5777	999999	0.25	0	0.15	4	0.4	0	7	;
	127	5778	999999	0.25	0	0.15	4	0.4	0	7	;
	128	3384	999999	0.25	0	0.15	4	0.4	0	7	;
	128	5779	999999	0.25	0	0.15	4	0.4	0	7	;
	128	5780	999999	0.25	0	0.15	4	0.4	0	7	;
	128	5781	999999	0.25	0	0.15	4	0.4	0	7	;
	129	5915	999999	0.25	0	0.15	4	0.4	0	7	;
	129	5916	999999	0.25	0	0.15	4	0.4	0	7	;
	129	5917	999999	0.25	0	0.15	4	0.4	0	7	;
	130	5918	999999	0.25	0	0.15	4	0.4	0	7	;
	130	5919	999999	0.25	0	0.15	4	0.4	0	7	;
	130	5920	999999	0.25	0	0.15	4	0.4	0	7	;
	130	5921	999999	0.25	0	0.15	4	0.4	0	7	;
	131	3389	999999	0.25	0	0.15	4	0.4	0	7	;
	131	5922	999999	0.25	0	0.15	4	0.4	0	7	;
	131	5923	999999	0.25	0	0.15	4	0.4	0	7	;
	132	5633	999999	0.25	0	0.15	4	0.4	0	7	;
	132	5924	999999	0.25	0	0.15	4	0.4	0	7	;
	132	5925	999999	0.25	0	0.15	4	0.4	0	7	;
	133	3390	999999	0.25	0	0.15	4	0.4	0	7	;
	133	5926	999999	0.25	0	0.15	4	0.4	0	7	;
	133	5927	999999	0.25	0	0.15	4	0.4	0	7	;
	134	3395	999999	0.25	0	0.15	4	0.4	0	7	;
	134	5928	999999	0.25	0	0.15	4	0.4	0	7	;
	134	5929	999999	0.25	0	0.15	4	0.4	0	7	;
	134	5930	999999	0.25	0	0.15	4	0.4	0	7	;
	135	3394	999999	0.25	0	0.15	4	0.4	0	7	;
	135	5634	999999	0.25	0	0.15	4	0.4	0	7	;
	135	5931	999999	0.25	0	0.15	4	0.4	0	7	;
	136	2908	999999	0.25	0	0.15	4	0.4	0	7	;
	136	2909	999999	0.25	0	0.15	4	0.4	0	7	;
	136	2929	999999	0.25	0	0.15	4	0.4	0	7	;
	137	5932	999999	0.25	0	0.15	4	0.4	0	7	;
	137	5933	999999	0.25	0	0.15	4	0.4	0	7	;
	137	5934	999999	0.25	0	0.15	4	0.4	0	7	;
	138	3388	999999	0.25	0	0.15	4	0.4	0	7	;
	138	5935	999999	0.25	0	0.15	4	0.4	0	7	;
	138	5936	999999	0.25	0	0.15	4	0.4	0	7	;
	139	3386	999999	0.25	0	0.15	4	0.4	0	7	;
	139	5937	999999	0.25	0	0.15	4	0.4	0	7	;
	139	5938	999999	0.25	0	0.15	4	0.4	0	7	;
	139	5939	999999	0.25	0	0.15	4	0.4	0	7	;
	140	5940	999999	0.2	0	0.15	4	0.4	0	7	;
	140	5941	999999	0.2	0	0.15	4	0.4	0	7	;
	140	5942	999999	0.2	0	0.15	4	0.4	0	7	;
	140	5943	999999	0.2	0	0.15	4	0.4	0	7	;
	141	5944	999999	0.25	0	0.15	4	0.4	0	7	;
	141	5945	999999	0.25	0	0.15	4	0.4	0	7	;
	141	5946	999999	0.25	0	0.15	4	0.4	0	7	;
	141	5947	999999	0.25	0	0.15	4	0.4	0	7	;
	142	5948	999999	0.25	0	0.15	4	0.4	0	7	;
	142	5949	999999	0.25	0	0.15	4	0.4	0	7	;
	142	5950	999999	0.25	0	0.15	4	0.4	0	7	;
	143	5951	999999	0.25	0	0.15	4	0.4	0	7	;
	143	5952	999999	0.25	0	0.15	4	0.4	0	7	;
	143	5953	999999	0.25	0	0.15	4	0.4	0	7	;
	143	5954	999999	0.25	0	0.15	4	0.4	0	7	;
	144	3393	999999	0.25	0	0.15	4	0.4	0	7	;
	144	5955	999999	0.25	0	0.15	4	0.4	0	7	;
	144	5956	999999	0.25	0	0.15	4	0.4	0	7	;
	144	5957	999999	0.25	0	0.15	4	0.4	0	7	;
	145	5635	999999	0.25	0	0.15	4	0.4	0	7	;
	145	5636	999999	0.25	0	0.15	4	0.4	0	7	;
	145	5958	999999	0.25	0	0.15	4	0.4	0	7	;
	146	5959	999999	0.25	0	0.15	4	0.4	0	7	;
	146	5960	999999	0.25	0	0.15	4	0.4	0	7	;
	146	5961	999999	0.25	0	0.15	4	0.4	0	7	;
	147	3397	999999	0.25	0	0.15	4	0.4	0	7	;
	147	5962	999999	0.25	0	0.15	4	0.4	0	7	;
	147	5963	999999	0.25	0	0.15	4	0.4	0	7	;
	147	5964	999999	0.25	0	0.15	4	0.4	0	7	;
	148	2930	999999	0.7	0	0.15	4	0.4	0	7	;
	148	5965	999999	0.7	0	0.15	4	0.4	0	7	;
	148	6320	999999	0.7	0	0.15	4	0.4	0	7	;
	149	5966	999999	0.25	0	0.15	4	0.4	0	7	;
	149	5967	999999	0.25	0	0.15	4	0.4	0	7	;
	149	5968	999999	0.25	0	0.15	4	0.4	0	7	;
	150	5969	999999	0.5	0	0.15	4	0.4	0	7	;
	150	5970	999999	0.5	0	0.15	4	0.4	0	7	;
	150	9044	999999	0.5	0	0.15	4	0.4	0	7	;
	151	5971	999999	0.25	0	0.15	4	0.4	0	7	;
	151	5972	999999	0.25	0	0.15	4	0.4	0	7	;
	151	5973	999999	0.25	0	0.15	4	0.4	0	7	;
	152	5974	999999	0.25	0	0.15	4	0.4	0	7	;
	152	5975	999999	0.25	0	0.15	4	0.4	0	7	;
	152	5976	999999	0.25	0	0.15	4	0.4	0	7	;
	152	5977	999999	0.25	0	0.15	4	0.4	0	7	;
	153	3403	999999	0.25	0	0.15	4	0.4	0	7	;
	153	5978	999999	0.25	0	0.15	4	0.4	0	7	;
	153	5979	999999	0.25	0	0.15	4	0.4	0	7	;
	154	5980	999999	0.25	0	0.15	4	0.4	0	7	;
	154	5981	999999	0.25	0	0.15	4	0.4	0	7	;
	155	5982	999999	0.25	0	0.15	4	0.4	0	7	;
	155	5983	999999	0.25	0	0.15	4	0.4	0	7	;
	155	5984	999999	0.25	0	0.15	4	0.4	0	7	;
	156	3399	999999	0.25	0	0.15	4	0.4	0	7	;
	156	5985	999999	0.25	0	0.15	4	0.4	0	7	;
	156	5986	999999	0.25	0	0.15	4	0.4	0	7	;
	157	5987	999999	0.25	0	0.15	4	0.4	0	7	;
	157	5988	999999	0.25	0	0.15	4	0.4	0	7	;
	157	5989	999999	0.25	0	0.15	4	0.4	0	7	;
	158	5990	999999	0.25	0	0.15	4	0.4	0	7	;
	158	5991	999999	0.25	0	0.15	4	0.4	0	7	;
	158	5992	999999	0.25	0	0.15	4	0.4	0	7	;
	158	5993	999999	0.25	0	0.15	4	0.4	0	7	;
	159	3400	999999	0.25	0	0.15	4	0.4	0	7	;
	159	4731	999999	0.25	0	0.15	4	0.4	0	7	;
	159	5637	999999	0.25	0	0.15	4	0.4	0	7	;
	160	5994	999999	0.25	0	0.15	4	0.4	0	7	;
	160	5995	999999	0.25	0	0.15	4	0.4	0	7	;
	160	5996	999999	0.25	0	0.15	4	0.4	0	7	;
	161	3401	999999	0.25	0	0.15	4	0.4	0	7	;
	161	5997	999999	0.25	0	0.15	4	0.4	0	7	;
	161	5998	999999	0.25	0	0.15	4	0.4	0	7	;
	162	2886	999999	0.25	0	0.15	4	0.4	0	7	;
	162	5999	999999	0.25	0	0.15	4	0.4	0	7	;
	162	6000	999999	0.25	0	0.15	4	0.4	0	7	;
	162	6001	999999	0.25	0	0.15	4	0.4	0	7	;
	163	6002	999999	0.25	0	0.15	4	0.4	0	7	;
	163	6003	999999	0.25	0	0.15	4	0.4	0	7	;
	163	6004	999999	0.25	0	0.15	4	0.4	0	7	;
	164	3405	999999	0.25	0	0.15	4	0.4	0	7	;
	164	6005	999999	0.25	0	0.15	4	0.4	0	7	;
	164	6006	999999	0.25	0	0.15	4	0.4	0	7	;
	164	6007	999999	0.25	0	0.15	4	0.4	0	7	;
	165	6008	999999	0.25	0	0.15	4	0.4	0	7	;
	165	6009	999999	0.25	0	0.15	4	0.4	0	7	;
	165	6010	999999	0.25	0	0.15	4	0.4	0	7	;
	166	3407	999999	0.25	0	0.15	4	0.4	0	7	;
	166	6011	999999	0.25	0	0.15	4	0.4	0	7	;
	166	6012	999999	0.25	0	0.15	4	0.4	0	7	;
	167	3408	999999	0.5	0	0.15	4	0.4	0	7	;
	167	6013	999999	0.5	0	0.15	4	0.4	0	7	;
	167	6014	999999	0.5	0	0.15	4	0.4	0	7	;
	168	6015	999999	0.5	0	0.15	4	0.4	0	7	;
	168	6016	999999	0.5	0	0.15	4	0.4	0	7	;
	168	6017	999999	0.5	0	0.15	4	0.4	0	7	;
	169	5638	999999	0.25	0	0.15	4	0.4	0	7	;
	169	6018	999999	0.25	0	0.15	4	0.4	0	7	;
	169	6019	999999	0.25	0	0.15	4	0.4	0	7	;
	170	6020	999999	0.25	0	0.15	4	0.4	0	7	;
	170	6021	999999	0.25	0	0.15	4	0.4	0	7	;
	170	6022	999999	0.25	0	0.15	4	0.4	0	7	;
	171	6023	999999	0.5	0	0.15	4	0.4	0	7	;
	171	6024	999999	0.5	0	0.15	4	0.4	0	7	;
	171	6025	999999	0.5	0	0.15	4	0.4	0	7	;
	172	6026	999999	0.25	0	0.15	4	0.4	0	7	;
	172	6027	999999	0.25	0	0.15	4	0.4	0	7	;
	172	6028	999999	0.25	0	0.15	4	0.4	0	7	;
	173	6029	999999	0.25	0	0.15	4	0.4	0	7	;
	173	6030	999999	0.25	0	0.15	4	0.4	0	7	;
	173	13279	999999	0.25	0	0.15	4	0.4	0	7	;
	174	4767	999999	0.5	0	0.15	4	0.4	0	7	;
	174	6031	999999	0.5	0	0.15	4	0.4	0	7	;
	174	6032	999999	0.5	0	0.15	4	0.4	0	7	;
	175	6033	999999	0.25	0	0.15	4	0.4	0	7	;
	175	6034	999999	0.25	0	0.15	4	0.4	0	7	;
	175	6035	999999	0.25	0	0.15	4	0.4	0	7	;
	176	3302	999999	0.12	0	0.15	4	0.4	0	7	;
	176	3303	999999	0.12	0	0.15	4	0.4	0	7	;
	176	6036	999999	0.12	0	0.15	4	0.4	0	7	;
	176	6037	999999	0.12	0	0.15	4	0.4	0	7	;
	177	6038	999999	0.12	0	0.15	4	0.4	0	7	;
	177	6039	999999	0.12	0	0.15	4	0.4	0	7	;
	177	6040	999999	0.12	0	0.15	4	0.4	0	7	;
	177	6041	999999	0.12	0	0.15	4	0.4	0	7	;
	178	4894	999999	0.2	0	0.15	4	0.4	0	7	;
	178	6042	999999	0.2	0	0.15	4	0.4	0	7	;
	178	6043	999999	0.2	0	0.15	4	0.4	0	7	;
	178	6044	999999	0.2	0	0.15	4	0.4	0	7	;
	179	3312	999999	0.2	0	0.15	4	0.4	0	7	;
	179	6045	999999	0.2	0	0.15	4	0.4	0	7	;
	179	6046	999999	0.2	0	0.15	4	0.4	0	7	;
	179	6047	999999	0.2	0	0.15	4	0.4	0	7	;
	180	4923	999999	0.25	0	0.15	4	0.4	0	7	;
	180	4926	999999	0.25	0	0.15	4	0.4	0	7	;
	180	6048	999999	0.25	0	0.15	4	0.4	0	7	;
	181	4927	999999	0.25	0	0.15	4	0.4	0	7	;
	182	6049	999999	0.25	0	0.15	4	0.4	0	7	;
	182	6050	999999	0.25	0	0.15	4	0.4	0	7	;
	182	6051	999999	0.25	0	0.15	4	0.4	0	7	;
	182	6052	999999	0.25	0	0.15	4	0.4	0	7	;
	183	3307	999999	0.25	0	0.15	4	0.4	0	7	;
	183	6054	999999	0.25	0	0.15	4	0.4	0	7	;
	183	6055	999999	0.25	0	0.15	4	0.4	0	7	;
	184	6056	999999	0.25	0	0.15	4	0.4	0	7	;
	184	6057	999999	0.25	0	0.15	4	0.4	0	7	;
	184	6058	999999	0.25	0	0.15	4	0.4	0	7	;
	184	9154	999999	0.25	0	0.15	4	0.4	0	7	;
	185	6059	999999	0.2	0	0.15	4	0.4	0	7	;
	185	6060	999999	0.2	0	0.15	4	0.4	0	7	;
	186	6062	999999	0.25	0	0.15	4	0.4	0	7	;
	186	6063	999999	0.25	0	0.15	4	0.4	0	7	;
	186	6064	999999	0.25	0	0.15	4	0.4	0	7	;
	186	6066	999999	0.25	0	0.15	4	0.4	0	7	;
	187	6067	999999	0.25	0	0.15	4	0.4	0	7	;
	187	6068	999999	0.25	0	0.15	4	0.4	0	7	;
	187	6069	999999	0.25	0	0.15	4	0.4	0	7	;
	187	6070	999999	0.25	0	0.15	4	0.4	0	7	;
	188	6071	999999	0.25	0	0.15	4	0.4	0	7	;
	188	6072	999999	0.25	0	0.15	4	0.4	0	7	;
	188	6074	999999	0.25	0	0.15	4	0.4	0	7	;
	188	6075	999999	0.25	0	0.15	4	0.4	0	7	;
	189	3301	999999	0.25	0	0.15	4	0.4	0	7	;
	189	6076	999999	0.25	0	0.15	4	0.4	0	7	;
	189	6077	999999	0.25	0	0.15	4	0.4	0	7	;
	189	6078	999999	0.25	0	0.15	4	0.4	0	7	;
	190	6079	999999	0.25	0	0.15	4	0.4	0	7	;
	190	6080	999999	0.25	0	0.15	4	0.4	0	7	;
	190	6081	999999	0.25	0	0.15	4	0.4	0	7	;
	191	6082	999999	0.25	0	0.15	4	0.4	0	7	;
	191	6083	999999	0.25	0	0.15	4	0.4	0	7	;
	191	6084	999999	0.25	0	0.15	4	0.4	0	7	;
	192	2896	999999	0.25	0	0.15	4	0.4	0	7	;
	192	6085	999999	0.25	0	0.15	4	0.4	0	7	;
	192	6086	999999	0.25	0	0.15	4	0.4	0	7	;
	192	6087	999999	0.25	0	0.15	4	0.4	0	7	;
	193	2897	999999	0.25	0	0.15	4	0.4	0	7	;
	193	3311	999999	0.25	0	0.15	4	0.4	0	7	;
	193	6089	999999	0.25	0	0.15	4	0.4	0	7	;
	194	2938	999999	0.25	0	0.15	4	0.4	0	7	;
	194	4920	999999	0.25	0	0.15	4	0.4	0	7	;
	194	4932	999999	0.25	0	0.15	4	0.4	0	7	;
	194	6090	999999	0.25	0	0.15	4	0.4	0	7	;
	195	4125	999999	0.2	0	0.15	4	0.4	0	7	;
	196	6091	999999	0.25	0	0.15	4	0.4	0	7	;
	196	6092	999999	0.25	0	0.15	4	0.4	0	7	;
	197	4926	999999	0.25	0	0.15	4	0.4	0	7	;
	198	4914	999999	0.25	0	0.15	4	0.4	0	7	;
	198	4917	999999	0.25	0	0.15	4	0.4	0	7	;
	198	4918	999999	0.25	0	0.15	4	0.4	0	7	;
	198	6096	999999	0.25	0	0.15	4	0.4	0	7	;
	199	6097	999999	0.25	0	0.15	4	0.4	0	7	;
	199	6098	999999	0.25	0	0.15	4	0.4	0	7	;
	199	6099	999999	0.25	0	0.15	4	0.4	0	7	;
	199	6100	999999	0.25	0	0.15	4	0.4	0	7	;
	200	3944	999999	0.25	0	0.15	4	0.4	0	7	;
	200	6101	999999	0.25	0	0.15	4	0.4	0	7	;
	200	6102	999999	0.25	0	0.15	4	0.4	0	7	;
	200	6103	999999	0.25	0	0.15	4	0.4	0	7	;
	201	3308	999999	0.2	0	0.15	4	0.4	0	7	;
	201	6104	999999	0.2	0	0.15	4	0.4	0	7	;
	202	5000	999999	0.25	0	0.15	4	0.4	0	7	;
	202	6105	999999	0.25	0	0.15	4	0.4	0	7	;
	202	6106	999999	0.25	0	0.15	4	0.4	0	7	;
	203	5011	999999	0.25	0	0.15	4	0.4	0	7	;
	203	6107	999999	0.25	0	0.15	4	0.4	0	7	;
	203	6108	999999	0.25	0	0.15	4	0.4	0	7	;
	204	6109	999999	0.5	0	0.15	4	0.4	0	7	;
	204	6110	999999	0.5	0	0.15	4	0.4	0	7	;
	204	6112	999999	0.5	0	0.15	4	0.4	0	7	;
	205	6113	999999	0.25	0	0.15	4	0.4	0	7	;
	205	6114	999999	0.25	0	0.15	4	0.4	0	7	;
	205	6115	999999	0.25	0	0.15	4	0.4	0	7	;
	206	6116	999999	0.25	0	0.15	4	0.4	0	7	;
	206	6117	999999	0.25	0	0.15	4	0.4	0	7	;
	206	6118	999999	0.25	0	0.15	4	0.4	0	7	;
	207	6119	999999	0.25	0	0.15	4	0.4	0	7	;
	207	6120	999999	0.25	0	0.15	4	0.4	0	7	;
	207	6121	999999	0.25	0	0.15	4	0.4	0	7	;
	208	6122	999999	0.25	0	0.15	4	0.4	0	7	;
	208	6123	999999	0.25	0	0.15	4	0.4	0	7	;
	208	6124	999999	0.25	0	0.15	4	0.4	0	7	;
	209	6125	999999	0.2	0	0.15	4	0.4	0	7	;
	209	6126	999999	0.2	0	0.15	4	0.4	0	7	;
	209	6127	999999	0.2	0	0.15	4	0.4	0	7	;
	209	6128	999999	0.2	0	0.15	4	0.4	0	7	;
	210	2899	999999	0.25	0	0.15	4	0.4	0	7	;
	210	3330	999999	0.25	0	0.15	4	0.4	0	7	;
	210	6129	999999	0.25	0	0.15	4	0.4	0	7	;
	211	3314	999999	0.25	0	0.15	4	0.4	0	7	;
	211	6130	999999	0.25	0	0.15	4	0.4	0	7	;
	211	6131	999999	0.25	0	0.15	4	0.4	0	7	;
	211	6132	999999	0.25	0	0.15	4	0.4	0	7	;
	212	6133	999999	0.25	0	0.15	4	0.4	0	7	;
	212	6134	999999	0.25	0	0.15	4	0.4	0	7	;
	212	6135	999999	0.25	0	0.15	4	0.4	0	7	;
	212	6136	999999	0.25	0	0.15	4	0.4	0	7	;
	213	6137	999999	0.25	0	0.15	4	0.4	0	7	;
	213	6138	999999	0.25	0	0.15	4	0.4	0	7	;
	213	6139	999999	0.25	0	0.15	4	0.4	0	7	;
	214	4942	999999	0.25	0	0.15	4	0.4	0	7	;
	215	4945	999999	0.25	0	0.15	4	0.4	0	7	;
	215	6140	999999	0.25	0	0.15	4	0.4	0	7	;
	215	6141	999999	0.25	0	0.15	4	0.4	0	7	;
	215	6142	999999	0.25	0	0.15	4	0.4	0	7	;
	216	3333	999999	0.25	0	0.15	4	0.4	0	7	;
	216	4947	999999	0.25	0	0.15	4	0.4	0	7	;
	216	6143	999999	0.25	0	0.15	4	0.4	0	7	;
	216	6144	999999	0.25	0	0.15	4	0.4	0	7	;
	217	6145	999999	0.25	0	0.15	4	0.4	0	7	;
	217	6146	999999	0.25	0	0.15	4	0.4	0	7	;
	217	6147	999999	0.25	0	0.15	4	0.4	0	7	;
	218	3334	999999	0.25	0	0.15	4	0.4	0	7	;
	218	6148	999999	0.25	0	0.15	4	0.4	0	7	;
	218	6149	999999	0.25	0	0.15	4	0.4	0	7	;
	218	6150	999999	0.25	0	0.15	4	0.4	0	7	;
	219	3331	999999	0.2	0	0.15	4	0.4	0	7	;
	219	3332	999999	0.2	0	0.15	4	0.4	0	7	;
	219	6151	999999	0.2	0	0.15	4	0.4	0	7	;
	219	6152	999999	0.2	0	0.15	4	0.4	0	7	;
	220	3326	999999	0.25	0	0.15	4	0.4	0	7	;
	220	6153	999999	0.25	0	0.15	4	0.4	0	7	;
	220	6154	999999	0.25	0	0.15	4	0.4	0	7	;
	221	6155	999999	0.25	0	0.15	4	0.4	0	7	;
	221	6156	999999	0.25	0	0.15	4	0.4	0	7	;
	221	6157	999999	0.25	0	0.15	4	0.4	0	7	;
	222	6158	999999	0.25	0	0.15	4	0.4	0	7	;
	222	6159	999999	0.25	0	0.15	4	0.4	0	7	;
	222	6160	999999	0.25	0	0.15	4	0.4	0	7	;
	222	6161	999999	0.25	0	0.15	4	0.4	0	7	;
	223	3319	999999	0.25	0	0.15	4	0.4	0	7	;
	223	3320	999999	0.25	0	0.15	4	0.4	0	7	;
	223	6162	999999	0.25	0	0.15	4	0.4	0	7	;
	224	3317	999999	0.25	0	0.15	4	0.4	0	7	;
	224	5005	999999	0.25	0	0.15	4	0.4	0	7	;
	224	6163	999999	0.25	0	0.15	4	0.4	0	7	;
	225	6164	999999	0.25	0	0.15	4	0.4	0	7	;
	225	6165	999999	0.25	0	0.15	4	0.4	0	7	;
	225	6166	999999	0.25	0	0.15	4	0.4	0	7	;
	226	6167	999999	0.25	0	0.15	4	0.4	0	7	;
	226	6168	999999	0.25	0	0.15	4	0.4	0	7	;
	226	6169	999999	0.25	0	0.15	4	0.4	0	7	;
	226	6170	999999	0.25	0	0.15	4	0.4	0	7	;
	227	3322	999999	0.25	0	0.15	4	0.4	0	7	;
	227	6171	999999	0.25	0	0.15	4	0.4	0	7	;
	227	6172	999999	0.25	0	0.15	4	0.4	0	7	;
	227	6173	999999	0.25	0	0.15	4	0.4	0	7	;
	228	5036	999999	0.25	0	0.15	4	0.4	0	7	;
	228	6174	999999	0.25	0	0.15	4	0.4	0	7	;
	228	6175	999999	0.25	0	0.15	4	0.4	0	7	;
	229	3327	999999	0.2	0	0.15	4	0.4	0	7	;
	229	3328	999999	0.2	0	0.15	4	0.4	0	7	;
	229	6176	999999	0.2	0	0.15	4	0.4	0	7	;
	229	6177	999999	0.2	0	0.15	4	0.4	0	7	;
	230	6179	999999	0.25	0	0.15	4	0.4	0	7	;
	230	6180	999999	0.25	0	0.15	4	0.4	0	7	;
	230	6181	999999	0.25	0	0.15	4	0.4	0	7	;