<NUMBER OF ZONES> 55
<TOTAL OD FLOW> 2.52257e+007
<END OF METADATA> 

Origin  1
	2 : 2207.2;	3 : 10600;	4 : 53000;	5 : 2.16;	6 : 0.32;
	7 : 6848;	8 : 7100;	9 : 335280;	10 : 1276;	11 : 997.6;
	12 : 0.24;	13 : 0.4;	14 : 1276.4;	15 : 0.52;	17 : 0.4;
	18 : 0.04;	21 : 280.32;	22 : 944.8;	24 : 6464;	25 : 912.8;
	26 : 7092;	27 : 33792;	28 : 1080.4;	29 : 33064;	30 : 22612;
	31 : 40.48;	32 : 3338.4;	33 : 3630;	34 : 163360;	35 : 70000;
	36 : 1.28;	37 : 9704;	38 : 44.8;	39 : 255.48;	41 : 19.84;
	42 : 168.12;	43 : 24172;	44 : 35.68;	45 : 0.12;	47 : 671.2;
	49 : 0.72;	50 : 0.32;	51 : 471.2;	54 : 0.48;	55 : 56.4;

Origin  2
	1 : 2807.2;	3 : 17728;	4 : 28480;	5 : 3.16;	6 : 2.68;
	7 : 9100;	8 : 17408;	9 : 49960;	10 : 2745.2;	11 : 0.04;
	13 : 26.32;	14 : 38584;	15 : 3.6;	16 : 2.36;	17 : 76.12;
	18 : 24.08;	19 : 27.6;	20 : 16.84;	21 : 0.32;	22 : 16.76;
	24 : 11108;	25 : 563.2;	26 : 4312;	27 : 645.2;	28 : 703.2;
	29 : 6464;	30 : 3451.2;	31 : 2189.2;	32 : 2662;	33 : 1719.2;
	34 : 480.8;	35 : 99280;	36 : 0.52;	37 : 5412;	38 : 0.04;
	39 : 0.4;	41 : 1.16;	43 : 0.08;	45 : 15.36;	46 : 947.6;
	47 : 3.64;	48 : 0.04;	49 : 0.16;	50 : 0.04;	51 : 389.76;
	54 : 0.12;	55 : 2589.6;
Origin  3
	1 : 8748;	2 : 23744;	4 : 227.32;	5 : 24748;	6 : 1743.6;
	7 : 2686.4;	8 : 167320;	9 : 13372;	10 : 1205.6;	11 : 2.6;
	12 : 1519.2;	13 : 1.88;	14 : 4288;	15 : 10.4;	16 : 0.92;
	17 : 172.48;	18 : 78.64;	19 : 14.2;	20 : 1.4;	22 : 0.8;
	25 : 0.04;	26 : 0.8;	27 : 0.2;	28 : 0.04;	30 : 227.92;
	31 : 1564.8;	32 : 55.32;	33 : 0.52;	34 : 7504;	35 : 26916;
	36 : 36.52;	37 : 0.08;	38 : 17.24;	39 : 11604;	40 : 0.4;
	41 : 13124;	42 : 1;	43 : 1.52;	44 : 1366.8;	45 : 16.92;
	46 : 3.92;	47 : 142;	48 : 0.04;	49 : 3031.2;	50 : 1226;
	55 : 1.08;
Origin  4
	1 : 39284;	2 : 37752;	3 : 168.96;	5 : 26.96;	6 : 416.8;
	7 : 84.2;	8 : 182.36;	9 : 35.36;	10 : 7.72;	12 : 0.24;
	13 : 1.24;	14 : 617.2;	15 : 0.04;	16 : 0.76;	18 : 0.04;
	20 : 0.08;	21 : 4888;	22 : 729.2;	23 : 48.04;	24 : 1852.8;
	25 : 7584;	26 : 6.92;	27 : 48480;	28 : 23.04;	29 : 26408;
	30 : 4.68;	31 : 3.24;	32 : 69.12;	33 : 74.2;	34 : 6316;
	35 : 45240;	36 : 0.68;	37 : 5076;	38 : 0.08;	39 : 1.08;
	41 : 1;	45 : 69.16;	46 : 0.48;	47 : 496640;	49 : 0.04;
	50 : 0.32;	51 : 53.8;	52 : 1.76;	53 : 0.28;	54 : 479.2;
	55 : 1.64;
Origin  5
	1 : 1.64;	2 : 2.6;	3 : 18372;	4 : 24.96;	6 : 39528;
	7 : 13900;	8 : 11584;	9 : 88.48;	10 : 25.48;	11 : 0.08;
	12 : 0.16;	13 : 7452;	14 : 430;	15 : 12.16;	16 : 0.08;
	17 : 0.32;	19 : 0.28;	21 : 85120;	22 : 0.96;	23 : 9;
	24 : 2.16;	25 : 1.88;	26 : 10552;	27 : 1890.4;	29 : 0.04;
	30 : 0.36;	32 : 181080;	33 : 0.52;	34 : 13300;	35 : 141.32;
	36 : 0.08;	38 : 0.12;	39 : 5.4;	41 : 343.04;	44 : 0.04;
	45 : 5.16;	47 : 4;	49 : 0.16;
Origin  6
	1 : 0.24;	2 : 3.36;	3 : 1482;	4 : 330.12;	5 : 29328;
	7 : 239080;	8 : 90.12;	9 : 245320;	10 : 2.28;	11 : 0.04;
	12 : 223960;	13 : 528.8;	14 : 372.6;	15 : 1.04;	16 : 6.52;
	17 : 2.76;	18 : 14.6;	19 : 1.08;	20 : 2.28;	21 : 1.96;
	22 : 6.56;	24 : 578.4;	25 : 5304;	26 : 38116;	27 : 51.72;
	30 : 0.24;	31 : 2.48;	32 : 1884;	33 : 2876;	34 : 173720;
	35 : 35.36;	39 : 0.04;	41 : 1166.4;	42 : 58.56;	43 : 2732.4;
	44 : 1268;	45 : 884;	46 : 142.84;	47 : 68.84;	50 : 0.08;

Origin  7
	1 : 5136;	2 : 10804;	3 : 2337.6;	4 : 91.08;	5 : 18800;
	6 : 177720;	8 : 275120;	9 : 5872;	10 : 5076;	11 : 28.28;
	12 : 81480;	13 : 22.44;	14 : 172.24;	15 : 3.36;	16 : 452.4;
	17 : 6284;	18 : 253.12;	19 : 896.4;	20 : 8.2;	21 : 0.04;
	25 : 178.72;	26 : 27.28;	27 : 2388.8;	28 : 12.92;	29 : 2.16;
	30 : 955.6;	31 : 8420;	32 : 59.52;	33 : 4648;	34 : 7000;
	35 : 89.44;	36 : 23.24;	37 : 24.56;	38 : 25.48;	39 : 18.24;
	40 : 1552;	41 : 1599.2;	42 : 0.04;	43 : 0.32;	44 : 86840;
	45 : 119.28;	46 : 34.44;	47 : 0.96;	48 : 0.72;	49 : 1.52;
	50 : 22.16;	51 : 6.8;	55 : 1.68;
Origin  8
	1 : 5752;	2 : 22368;	3 : 128800;	4 : 232.44;	5 : 8800;
	6 : 76.28;	7 : 203960;	9 : 85.96;	10 : 106;	11 : 74.4;
	12 : 47.4;	13 : 1972.8;	14 : 19712;	15 : 2206.4;	16 : 6.12;
	17 : 2987.2;	18 : 25708;	19 : 1984.4;	20 : 48.44;	21 : 89.44;
	22 : 410.8;	25 : 545.6;	26 : 8808;	27 : 238.68;	28 : 8.8;
	29 : 1.48;	30 : 8348;	31 : 3193.2;	32 : 479.2;	33 : 1035.2;
	34 : 34584;	35 : 9200;	36 : 160.64;	37 : 9.24;	38 : 297.28;
	39 : 432.4;	40 : 224.6;	41 : 4920;	42 : 0.2;	43 : 0.72;
	44 : 2496.8;	45 : 62.2;	46 : 2070;	47 : 1773.6;	48 : 7556;
	49 : 0.4;	50 : 8232;	51 : 31.92;	55 : 0.28;
Origin  9
	1 : 361160;	2 : 59640;	3 : 11840;	4 : 44.84;	5 : 65.52;
	6 : 194680;	7 : 6092;	8 : 63.56;	10 : 11160;	11 : 27240;
	12 : 0.04;	13 : 36.8;	14 : 259.36;	15 : 71.28;	16 : 0.24;
	17 : 26352;	18 : 3273.2;	19 : 5256;	20 : 16.56;	22 : 1.56;
	23 : 4.56;	24 : 0.08;	27 : 0.12;	29 : 10.12;	30 : 35340;
	31 : 22720;	32 : 11672;	33 : 0.08;	34 : 1608;	35 : 7044;
	36 : 21.52;	37 : 21.6;	38 : 7.84;	39 : 0.08;	40 : 606.4;
	41 : 944;	42 : 1.08;	43 : 1504.8;	44 : 30244;	45 : 24.56;
	46 : 0.76;	48 : 7148;	50 : 1.6;	51 : 4.56;	55 : 0.04;

Origin  10
	1 : 1718.8;	2 : 3712.8;	3 : 1619.2;	4 : 10.44;	5 : 28.64;
	6 : 2.6;	7 : 6216;	8 : 133.08;	9 : 10488;	11 : 30.88;
	12 : 1899.6;	13 : 4608;	14 : 26240;	15 : 1040.8;	16 : 2223.6;
	17 : 24492;	18 : 280.44;	19 : 5600;	20 : 42.6;	21 : 0.16;
	22 : 54.52;	24 : 3.08;	25 : 0.52;	26 : 0.04;	27 : 16.28;
	28 : 1862.8;	29 : 0.08;	30 : 22044;	31 : 222.08;	32 : 3.28;
	34 : 5108;	35 : 1.08;	36 : 5648;	37 : 7.24;	38 : 65.24;
	39 : 86960;	40 : 2916.8;	41 : 838;	42 : 412.8;	43 : 21984;
	44 : 1459.2;	45 : 91.52;	46 : 20.52;	47 : 0.76;	48 : 16112;
	50 : 2620;	51 : 6.16;	54 : 0.2;	55 : 874.4;
Origin  11
	1 : 1349.6;	2 : 0.08;	3 : 1.92;	5 : 0.08;	6 : 0.04;
	7 : 20.92;	8 : 55.08;	9 : 20200;	10 : 22.84;	12 : 18.6;
	13 : 47.6;	14 : 18.2;	15 : 5100;	16 : 97.08;	17 : 20.16;
	18 : 18.8;	19 : 2161.2;	22 : 207080;	23 : 75.36;	28 : 0.36;
	30 : 0.2;	31 : 0.24;	32 : 0.04;	34 : 36936;	37 : 0.08;
	38 : 0.12;	40 : 205.04;	41 : 60.04;	42 : 40;	43 : 24.52;
	44 : 3507.6;	45 : 1.08;	46 : 0.4;	47 : 0.08;	48 : 56160;
	49 : 9400;	54 : 11.32;	55 : 32;
Origin  12
	1 : 0.16;	3 : 1138;	4 : 0.2;	5 : 0.2;	6 : 302680;
	7 : 60200;	8 : 54.2;	9 : 0.08;	10 : 2294.8;	11 : 25.16;
	13 : 8972;	14 : 46.32;	15 : 121.12;	16 : 545.6;	17 : 34092;
	18 : 25.64;	19 : 46600;	20 : 130.8;	21 : 15.6;	22 : 43640;
	23 : 1676.8;	24 : 8640;	25 : 212200;	26 : 770.8;	27 : 464.4;
	29 : 0.96;	30 : 0.04;	31 : 0.12;	32 : 60320;	33 : 0.04;
	34 : 1195.6;	35 : 1642;	37 : 0.12;	38 : 0.56;	39 : 6.76;
	41 : 17.48;	42 : 0.28;	44 : 308.36;	45 : 252.96;	46 : 311.04;
	47 : 40440;	48 : 5.12;	49 : 0.24;	52 : 0.04;	54 : 0.04;

Origin  13
	1 : 0.36;	2 : 35.2;	3 : 2.28;	4 : 1.64;	5 : 5952;
	6 : 391.12;	7 : 16.68;	8 : 2074.4;	9 : 49.52;	10 : 3437.6;
	11 : 64.16;	12 : 7952;	14 : 45040;	15 : 194.72;	16 : 42.2;
	17 : 156.24;	18 : 56.84;	19 : 3169.2;	20 : 3610;	21 : 13.88;
	22 : 255.28;	24 : 10436;	25 : 5416;	26 : 549.2;	27 : 0.28;
	28 : 593.6;	30 : 10.04;	31 : 0.4;	32 : 0.48;	33 : 229.2;
	34 : 5.4;	35 : 0.64;	36 : 0.16;	37 : 0.24;	40 : 16.24;
	41 : 15.84;	42 : 0.24;	43 : 0.12;	44 : 737.2;	45 : 353.96;
	46 : 4776;	47 : 31152;	48 : 9784;	50 : 0.24;	51 : 0.08;
	54 : 0.08;	55 : 593.6;
Origin  14
	1 : 948;	2 : 34968;	3 : 3203.2;	4 : 465.2;	5 : 454.4;
	6 : 500;	7 : 139.88;	8 : 26636;	9 : 350.92;	10 : 33656;
	11 : 24.64;	12 : 49.52;	13 : 42800;	15 : 15.12;	16 : 15260;
	17 : 298.96;	18 : 90.6;	19 : 5408;	20 : 5028;	22 : 289.08;
	23 : 0.6;	24 : 3420.4;	25 : 26132;	26 : 19;	27 : 1562.8;
	28 : 47520;	29 : 2.72;	30 : 5100;	31 : 3454;	32 : 3423.2;
	33 : 23332;	34 : 10720;	35 : 259.12;	36 : 143.16;	37 : 53.16;
	38 : 1;	39 : 2.08;	40 : 156280;	41 : 4252;	42 : 6;
	43 : 838.8;	44 : 134;	45 : 38.84;	46 : 10772;	47 : 151520;
	48 : 492.8;	49 : 3.04;	50 : 35.84;	51 : 14.24;	54 : 1.12;
	55 : 47520;
Origin  15
	1 : 0.72;	2 : 4.88;	3 : 14.04;	4 : 0.04;	5 : 13.44;
	6 : 0.76;	7 : 4.36;	8 : 2084.8;	9 : 95.92;	10 : 777.2;
	11 : 6532;	12 : 133.6;	13 : 184.6;	14 : 11.2;	16 : 197.52;
	17 : 17248;	18 : 24.2;	19 : 95640;	20 : 0.24;	21 : 0.16;
	22 : 0.04;	24 : 0.72;	25 : 0.28;	26 : 7468;	27 : 0.28;
	28 : 12088;	30 : 30.76;	31 : 73.44;	33 : 0.04;	34 : 111;
	36 : 0.2;	37 : 0.44;	38 : 1.44;	39 : 1.56;	40 : 17;
	41 : 91.4;	42 : 3.6;	43 : 523.2;	44 : 112.04;	45 : 0.24;
	46 : 8.04;	47 : 1750.8;	48 : 300960;	49 : 0.6;	50 : 21.88;
	51 : 0.28;	55 : 1101.2;
Origin  16
	2 : 3.16;	3 : 0.68;	4 : 0.64;	5 : 0.08;	6 : 8.76;
	7 : 334.52;	8 : 7.12;	9 : 0.36;	10 : 2523.2;	11 : 85.32;
	12 : 626.8;	13 : 47.56;	14 : 11280;	15 : 184.2;	17 : 25996;
	18 : 508.4;	19 : 60720;	20 : 68.48;	21 : 0.4;	22 : 1064.8;
	24 : 83520;	25 : 2466;	26 : 43.72;	27 : 12.76;	28 : 127480;
	29 : 0.12;	30 : 0.12;	31 : 0.88;	32 : 446;	33 : 0.32;
	34 : 2.04;	37 : 0.04;	38 : 0.04;	39 : 5.24;	40 : 2.8;
	41 : 0.44;	42 : 15.96;	44 : 229.84;	45 : 311.44;	46 : 589.6;
	47 : 79;	48 : 144520;	54 : 0.24;	55 : 17424;
Origin  17
	1 : 0.56;	2 : 102.52;	3 : 207.68;	4 : 0.04;	5 : 0.44;
	6 : 3.72;	7 : 8156;	8 : 3354;	9 : 19924;	10 : 18120;
	11 : 15.4;	12 : 42760;	13 : 116.2;	14 : 223.6;	15 : 12876;
	16 : 26596;	18 : 2250;	19 : 3282;	20 : 49.64;	21 : 26212;
	22 : 39.04;	25 : 100.08;	26 : 573.2;	27 : 5.76;	28 : 16688;
	29 : 1.88;	30 : 5.32;	31 : 638.8;	34 : 3925.6;	36 : 0.04;
	37 : 7;	38 : 3.92;	39 : 245480;	40 : 11.68;	42 : 13.68;
	43 : 232240;	44 : 383.84;	45 : 202.16;	46 : 735.2;	48 : 15.24;
	49 : 685.6;	50 : 1.6;	51 : 1.12;	54 : 1.16;	55 : 912.4;

Origin  18
	1 : 0.04;	2 : 32.6;	3 : 105.52;	4 : 0.04;	6 : 19.48;
	7 : 322.6;	8 : 34768;	9 : 4428;	10 : 339.72;	11 : 22.56;
	12 : 22.04;	13 : 50.16;	14 : 73.56;	15 : 29;	16 : 376.08;
	17 : 2403.2;	19 : 0.4;	20 : 9.84;	21 : 0.12;	22 : 548.8;
	24 : 3048;	25 : 6228;	26 : 10.76;	27 : 3.48;	28 : 83.84;
	29 : 0.28;	30 : 16036;	31 : 157.56;	32 : 14.68;	33 : 9.92;
	34 : 1936.4;	36 : 1429.2;	37 : 0.2;	38 : 1.92;	39 : 0.88;
	40 : 5292;	41 : 3416.4;	42 : 2.96;	43 : 10124;	44 : 283.28;
	45 : 6.96;	46 : 364.04;	47 : 24612;	48 : 244.6;	49 : 5872;
	50 : 968;	51 : 0.48;	55 : 83.84;
Origin  19
	2 : 37.2;	3 : 16.88;	5 : 0.4;	6 : 1.32;	7 : 1161.2;
	8 : 1868.8;	9 : 3898;	10 : 4144;	11 : 2896.8;	12 : 34516;
	13 : 2344;	14 : 4028;	15 : 70720;	16 : 44880;	17 : 3405.2;
	18 : 0.52;	20 : 26956;	21 : 0.08;	22 : 4.76;	23 : 0.04;
	24 : 0.72;	25 : 10.12;	26 : 89.72;	27 : 1.28;	28 : 906;
	30 : 559.6;	31 : 35.48;	34 : 518.8;	35 : 0.04;	36 : 0.56;
	38 : 1862.4;	39 : 60080;	40 : 1192.8;	41 : 42.32;	42 : 50280;
	43 : 20228;	44 : 160800;	45 : 2.92;	46 : 9488;	47 : 31732;
	48 : 82.28;	49 : 17228;	50 : 0.88;	55 : 974.8;
Origin  20
	2 : 22.8;	3 : 1.8;	4 : 0.12;	6 : 3.08;	7 : 9.36;
	8 : 65.48;	9 : 22.36;	10 : 33.48;	12 : 110.64;	13 : 2834;
	14 : 3742.4;	15 : 0.2;	16 : 50.64;	17 : 65.8;	18 : 9.2;
	19 : 27068;	21 : 0.44;	22 : 3.96;	24 : 907.2;	25 : 23.16;
	26 : 0.16;	27 : 0.32;	28 : 71.32;	29 : 0.48;	30 : 5.84;
	31 : 0.2;	32 : 4452;	33 : 1.08;	34 : 44.52;	37 : 0.08;
	38 : 0.04;	39 : 12.28;	43 : 0.48;	44 : 0.04;	45 : 0.08;
	46 : 2503.2;	47 : 179200;	48 : 0.04;	49 : 0.16;	50 : 0.04;
	51 : 0.16;	54 : 3.12;	55 : 71.32;
Origin  21
	1 : 379.24;	2 : 0.4;	4 : 6616;	5 : 115160;	6 : 2.68;
	7 : 0.04;	8 : 82.8;	10 : 0.12;	12 : 19.6;	13 : 10.28;
	15 : 0.12;	16 : 0.28;	17 : 35356;	18 : 0.08;	19 : 0.08;
	20 : 0.32;	22 : 27;	23 : 299.6;	24 : 173960;	25 : 46.64;
	26 : 42.56;	27 : 260.16;	28 : 0.04;	29 : 18512;	30 : 54520;
	31 : 0.4;	32 : 31112;	34 : 0.16;	35 : 537.2;	36 : 3672.4;
	37 : 8.08;	38 : 92160;	39 : 53440;	41 : 1.4;	45 : 40080;
	46 : 17.76;	47 : 14.28;	48 : 57520;	50 : 11424;	51 : 0.56;
	52 : 2714;	53 : 205720;	54 : 2684;
Origin  22
	1 : 1278;	2 : 22.68;	3 : 0.6;	4 : 986.4;	5 : 1.32;
	6 : 8.84;	8 : 356.08;	9 : 1.16;	10 : 40.28;	11 : 153600;
	12 : 58840;	13 : 188.72;	14 : 383.56;	15 : 0.04;	16 : 808.4;
	17 : 44.16;	18 : 406.8;	19 : 4.48;	20 : 2.96;	21 : 20.72;
	23 : 2964.8;	24 : 9972;	25 : 5400;	26 : 2104.8;	27 : 38560;
	28 : 0.28;	29 : 26.76;	30 : 381.08;	32 : 443.2;	33 : 23.68;
	34 : 0.32;	35 : 734;	36 : 0.12;	37 : 0.08;	38 : 556.4;
	39 : 895.2;	41 : 1.24;	43 : 60.96;	44 : 3.68;	45 : 2435.6;
	46 : 185.32;	47 : 0.52;	48 : 4.28;	50 : 0.76;	52 : 23.32;
	53 : 8572;	54 : 3718.4;
Origin  23
	4 : 64.88;	5 : 12.2;	9 : 3.36;	11 : 55.72;	12 : 2267.6;
	14 : 0.84;	19 : 0.04;	21 : 225.36;	22 : 2604;	24 : 4864;
	25 : 176.56;	27 : 1475.6;	28 : 1.84;	29 : 11.16;	32 : 899.6;
	33 : 26.88;	35 : 1354;	36 : 0.04;	37 : 0.04;	38 : 0.04;
	45 : 4.48;	47 : 50560;	50 : 0.04;	52 : 0.08;	53 : 0.04;
	54 : 7232;	55 : 0.08;
Origin  24
	1 : 8744;	2 : 15028;	4 : 2506.8;	5 : 2.88;	6 : 782.4;
	9 : 0.12;	10 : 2.28;	12 : 8756;	13 : 7716;	14 : 4356;
	15 : 0.52;	16 : 63360;	18 : 2255.2;	19 : 1;	20 : 671.6;
	21 : 223200;	22 : 10036;	23 : 4944;	25 : 5084;	26 : 232.4;
	27 : 182.2;	28 : 0.6;	29 : 2;	31 : 0.04;	32 : 0.12;
	35 : 1208.4;	38 : 0.04;	39 : 0.04;	45 : 1488;	46 : 9812;
	47 : 54920;	48 : 2.64;	52 : 2.12;	53 : 17.28;	54 : 124800;

Origin  25
	1 : 1229.6;	2 : 762;	4 : 10260;	5 : 2.48;	6 : 7176;
	7 : 132.08;	8 : 414.4;	10 : 0.4;	12 : 263480;	13 : 4004;
	14 : 34944;	15 : 0.2;	16 : 1858.4;	17 : 135;	18 : 4604;
	19 : 13.56;	20 : 17.12;	21 : 60.04;	22 : 5392;	23 : 187.6;
	24 : 5160;	26 : 110600;	27 : 33.72;	28 : 0.52;	29 : 12616;
	30 : 0.8;	31 : 72880;	32 : 5412;	33 : 1104;	34 : 0.04;
	35 : 1716.8;	36 : 120.76;	37 : 114.72;	38 : 72080;	39 : 57440;
	45 : 60440;	46 : 1120;	47 : 133640;	48 : 2.6;	49 : 0.4;
	50 : 95.84;	51 : 0.52;	52 : 0.04;	53 : 0.08;	54 : 267.12;
	55 : 0.72;
Origin  26
	1 : 9592;	2 : 5832;	3 : 0.6;	4 : 9.36;	5 : 14276;
	6 : 51560;	7 : 20.16;	8 : 11916;	10 : 0.04;	12 : 1040;
	13 : 743.2;	14 : 18.4;	15 : 10104;	16 : 58.28;	17 : 766.8;
	18 : 12.64;	19 : 117.36;	20 : 0.2;	21 : 41.04;	22 : 1988.4;
	24 : 314.32;	25 : 149640;	27 : 137.92;	29 : 2.4;	39 : 0.04;
	45 : 2298;	46 : 2.52;	47 : 91920;	48 : 88520;	53 : 0.04;
	54 : 2.48;
Origin  27
	1 : 45680;	2 : 872.8;	3 : 0.16;	4 : 65600;	5 : 2557.6;
	6 : 69.96;	7 : 1765.6;	8 : 211.76;	9 : 0.16;	10 : 12.08;
	12 : 628;	13 : 0.2;	14 : 1155.2;	15 : 0.24;	16 : 11.84;
	17 : 7.76;	18 : 2.64;	19 : 1.72;	20 : 0.24;	21 : 300.72;
	22 : 30056;	23 : 1994.4;	24 : 145.76;	25 : 45.32;	26 : 169.12;
	29 : 60.72;	30 : 3.44;	31 : 98.4;	32 : 233;	33 : 0.04;
	34 : 0.16;	35 : 46200;	36 : 0.16;	37 : 0.28;	38 : 55.6;
	39 : 40.8;	45 : 2.8;	46 : 2.36;	47 : 47.68;	48 : 17.6;
	50 : 4.36;	51 : 0.12;	54 : 0.24;
Origin  28
	1 : 961.6;	2 : 939.2;	3 : 0.04;	4 : 31;	7 : 9.52;
	8 : 11.44;	10 : 1738.8;	11 : 0.24;	13 : 680.8;	14 : 35272;
	15 : 16348;	16 : 94320;	17 : 22504;	18 : 110.76;	19 : 1209.6;
	20 : 73.4;	21 : 0.04;	22 : 0.24;	23 : 1.56;	24 : 0.44;
	25 : 0.4;	26 : 0.04;	29 : 0.32;	30 : 0.04;	31 : 21.84;
	32 : 5868;	33 : 11.24;	34 : 0.04;	35 : 24.08;	38 : 3.88;
	39 : 3.04;	45 : 2442.4;	46 : 5084;	47 : 53880;	48 : 88640;
	55 : 40;
Origin  29
	1 : 27156;	2 : 4832;	4 : 35048;	5 : 0.04;	7 : 2.4;
	8 : 1.8;	9 : 7.52;	10 : 0.04;	12 : 1.28;	14 : 3.6;
	16 : 0.16;	17 : 1.4;	18 : 0.2;	20 : 0.36;	21 : 25000;
	22 : 19.84;	23 : 8.72;	24 : 1.48;	25 : 16328;	26 : 1.8;
	27 : 59.92;	28 : 0.44;	30 : 678.4;	31 : 11.36;	32 : 199.04;
	33 : 0.56;	34 : 0.12;	35 : 5024;	36 : 72.2;	37 : 0.12;
	38 : 4112;	39 : 26564;	41 : 5116;	43 : 26872;	44 : 0.04;
	45 : 0.24;	46 : 16.68;	47 : 43;	48 : 0.2;	50 : 0.96;
	51 : 0.2;	52 : 0.04;	53 : 153.8;	54 : 44.56;	55 : 0.44;

Origin  30
	1 : 16724;	2 : 2554.4;	3 : 176.4;	4 : 3.8;	5 : 0.28;
	6 : 0.16;	7 : 734.4;	8 : 8284;	9 : 26120;	10 : 16300;
	11 : 0.16;	12 : 0.08;	13 : 7.48;	14 : 6232;	15 : 22.72;
	16 : 0.16;	17 : 4.04;	18 : 11864;	19 : 413.6;	20 : 4.32;
	21 : 64360;	22 : 281.68;	25 : 1.04;	27 : 2.72;	28 : 0.04;
	29 : 502.4;	31 : 57.72;	32 : 48280;	33 : 876.8;	34 : 3726.8;
	35 : 30856;	36 : 80.16;	37 : 1056.8;	38 : 13664;	39 : 43280;
	41 : 3156;	42 : 0.04;	43 : 107080;	44 : 0.12;	45 : 1.52;
	46 : 14.16;	47 : 39.48;	48 : 4.72;	50 : 71.72;	51 : 114.28;
	53 : 0.12;	54 : 28256;	55 : 0.04;
Origin  31
	1 : 31.48;	2 : 1630.8;	3 : 2047.6;	4 : 4.16;	6 : 1.84;
	7 : 9228;	8 : 4224;	9 : 29076;	10 : 166.24;	11 : 0.16;
	12 : 0.16;	13 : 0.36;	14 : 4648;	15 : 54.28;	16 : 1.2;
	17 : 481.2;	18 : 118.72;	19 : 26.44;	20 : 0.16;	21 : 0.36;
	24 : 0.04;	25 : 98640;	27 : 133.12;	28 : 29.52;	29 : 8.48;
	30 : 66.8;	32 : 17968;	33 : 1591.2;	34 : 83.88;	35 : 1676;
	36 : 24;	37 : 17;	38 : 59.84;	39 : 45720;	41 : 10664;
	42 : 3.44;	43 : 0.04;	45 : 2.56;	46 : 8.64;	47 : 0.36;
	48 : 0.16;	49 : 0.36;	50 : 813.6;	51 : 76.12;	54 : 21.12;
	55 : 1.56;
Origin  32
	1 : 3055.6;	2 : 3096.8;	3 : 52.12;	4 : 93.08;	5 : 134680;
	6 : 1800.8;	7 : 78.64;	8 : 629.6;	9 : 15740;	10 : 2.56;
	11 : 0.04;	12 : 52720;	13 : 0.52;	14 : 4604;	16 : 360.36;
	18 : 11.56;	20 : 3290.4;	21 : 41960;	22 : 332.52;	23 : 908.4;
	24 : 0.08;	25 : 6752;	27 : 259.12;	28 : 7932;	29 : 251.32;
	30 : 65240;	31 : 24300;	33 : 11;	34 : 0.04;	35 : 1228.4;
	36 : 72.12;	37 : 0.52;	38 : 57320;	39 : 227560;	41 : 51.12;
	45 : 754.8;	46 : 156120;	47 : 15984;	50 : 99.84;	51 : 0.08;
	52 : 0.24;	53 : 1681.2;	54 : 11452;	55 : 217.36;
Origin  33
	1 : 2777.2;	2 : 1298;	3 : 0.68;	4 : 96.44;	5 : 0.52;
	6 : 2138;	7 : 3550.8;	8 : 780;	9 : 0.08;	12 : 0.04;
	13 : 169.64;	14 : 20340;	15 : 0.04;	16 : 0.4;	18 : 7.32;
	20 : 0.8;	22 : 32.04;	23 : 36.4;	25 : 1493.6;	27 : 0.08;
	28 : 15.24;	29 : 0.56;	30 : 998.8;	31 : 1576;	32 : 8.12;
	34 : 1.56;	35 : 12.4;	36 : 127640;	37 : 280.48;	38 : 2.56;
	39 : 0.04;	45 : 0.04;	46 : 0.56;	50 : 16728;	51 : 20.16;
	55 : 15.24;
Origin  34
	1 : 129120;	2 : 431.6;	3 : 9324;	4 : 8524;	5 : 17972;
	6 : 129640;	7 : 6216;	8 : 42960;	9 : 1968.8;	10 : 3778.8;
	11 : 46040;	12 : 1616.8;	13 : 4.08;	14 : 14108;	15 : 82.04;
	16 : 2.76;	17 : 2904;	18 : 1435.6;	19 : 384.64;	20 : 34.08;
	21 : 0.12;	22 : 0.24;	25 : 0.04;	27 : 0.2;	28 : 0.04;
	29 : 0.16;	30 : 4552;	31 : 74.76;	32 : 0.04;	33 : 1.32;
	35 : 21.88;	36 : 41240;	37 : 33.48;	38 : 33.4;	39 : 3164;
	41 : 3068.8;	42 : 352.56;	43 : 44.64;	44 : 384.96;	45 : 559.6;
	46 : 208.84;	47 : 26.28;	48 : 25436;	49 : 80600;	50 : 272600;
	51 : 2.52;	54 : 0.08;	55 : 0.08;
Origin  35
	1 : 51760;	2 : 73480;	3 : 23088;	4 : 38576;	5 : 191.2;
	6 : 47.8;	7 : 119.96;	8 : 12308;	9 : 9524;	10 : 0.92;
	12 : 2221.6;	13 : 0.76;	14 : 350.52;	19 : 0.04;	21 : 431.2;
	22 : 712.4;	23 : 1322;	24 : 1128.4;	25 : 1908.4;	27 : 58600;
	28 : 32.04;	29 : 6748;	30 : 41760;	31 : 2267.2;	32 : 1131.6;
	33 : 16.76;	34 : 29.56;	36 : 123.48;	37 : 5.64;	38 : 1154;
	39 : 32860;	41 : 20.56;	45 : 65.6;	46 : 0.12;	47 : 3.08;
	50 : 85.24;	51 : 0.88;	52 : 0.08;	53 : 0.2;	54 : 8332;
	55 : 1.12;
Origin  36
	1 : 1.4;	2 : 0.48;	3 : 41.68;	4 : 0.88;	5 : 0.12;
	7 : 17.72;	8 : 167.04;	9 : 15.92;	10 : 4656;	13 : 0.12;
	14 : 140.56;	15 : 0.16;	17 : 0.04;	18 : 1056.4;	19 : 0.4;
	21 : 4964;	22 : 0.12;	23 : 0.08;	25 : 163.36;	27 : 0.2;
	29 : 63.2;	30 : 98.24;	31 : 32.16;	32 : 53.36;	33 : 100920;
	34 : 48680;	35 : 91.96;	37 : 219.96;	38 : 484.8;	39 : 803.6;
	41 : 9.64;	43 : 31028;	47 : 17.44;	50 : 62.96;	51 : 8.28;

Origin  37
	1 : 7692;	2 : 4052;	3 : 0.04;	4 : 6820;	7 : 18.96;
	8 : 7.4;	9 : 16.16;	10 : 5.36;	11 : 0.04;	12 : 0.12;
	13 : 0.2;	14 : 52.44;	15 : 0.32;	16 : 0.04;	17 : 5.2;
	18 : 0.16;	20 : 0.04;	21 : 10.96;	22 : 0.04;	25 : 152.52;
	27 : 0.32;	29 : 0.12;	30 : 1412.8;	31 : 21.8;	32 : 0.4;
	33 : 216.04;	34 : 24.96;	35 : 4.24;	36 : 196.08;	38 : 11524;
	39 : 34048;	41 : 5460;	42 : 0.04;	43 : 13424;	44 : 0.24;
	46 : 0.04;	48 : 0.24;	49 : 0.04;	50 : 1.76;	51 : 65.56;
	54 : 0.2;
Origin  38
	1 : 34.08;	2 : 0.04;	3 : 13.96;	4 : 0.08;	5 : 0.16;
	7 : 19.44;	8 : 290.16;	9 : 5.8;	10 : 48.44;	11 : 0.08;
	12 : 0.76;	14 : 1.08;	15 : 1.04;	16 : 0.04;	17 : 2.92;
	18 : 1.4;	19 : 1376.8;	20 : 0.04;	21 : 123440;	22 : 411.6;
	23 : 0.04;	24 : 0.04;	25 : 97560;	26 : 0.04;	27 : 75.2;
	28 : 5.24;	29 : 4088;	30 : 16596;	31 : 79.72;	32 : 42360;
	33 : 1.92;	34 : 26.52;	35 : 868.8;	36 : 382.64;	37 : 14188;
	39 : 5968;	41 : 3861.2;	43 : 2.56;	45 : 1.8;	46 : 1.24;
	47 : 0.12;	50 : 159.56;	51 : 709.2;	54 : 41.6;	55 : 1.56;

Origin  39
	1 : 189.84;	2 : 0.36;	3 : 14944;	4 : 1.28;	5 : 7.32;
	6 : 0.04;	7 : 14.96;	8 : 510.8;	9 : 0.04;	10 : 92000;
	12 : 9.12;	14 : 2.24;	15 : 1.16;	16 : 7.08;	17 : 246640;
	18 : 0.68;	19 : 44400;	20 : 9.16;	21 : 50880;	22 : 661.6;
	24 : 0.04;	25 : 77680;	26 : 0.04;	27 : 55.2;	28 : 4.12;
	29 : 21000;	30 : 40360;	31 : 57720;	32 : 168200;	33 : 0.04;
	34 : 2936.8;	35 : 24296;	36 : 625.2;	37 : 32476;	38 : 5968;
	41 : 21756;	43 : 36.84;	45 : 31.08;	46 : 480.4;	47 : 123.84;
	48 : 0.12;	50 : 100.96;	51 : 2867.6;	54 : 108.52;	55 : 0.44;

Origin  40
	3 : 0.52;	7 : 1155.6;	8 : 226.04;	9 : 448.4;	10 : 2156;
	11 : 202.28;	13 : 12.08;	14 : 119000;	15 : 12.56;	16 : 3.76;
	17 : 8.96;	18 : 3912.8;	19 : 898;	41 : 0.04;	42 : 2088.8;
	43 : 43360;	44 : 94640;	46 : 0.16;	47 : 6;	48 : 42640;
	49 : 20100;
Origin  41
	1 : 14.96;	2 : 0.88;	3 : 14592;	4 : 1.36;	5 : 464;
	6 : 863.2;	7 : 1206.8;	8 : 4600;	9 : 697.6;	10 : 622;
	11 : 48.96;	12 : 23.44;	13 : 11.76;	14 : 4372;	15 : 67.56;
	16 : 0.6;	18 : 2526.4;	19 : 33.08;	21 : 1.04;	22 : 0.92;
	29 : 3904.4;	30 : 2732.8;	31 : 7912;	32 : 37.8;	34 : 2609.6;
	35 : 15.2;	36 : 10.6;	37 : 5736;	38 : 3076.4;	39 : 16836;
	40 : 0.04;	42 : 7356;	43 : 85.6;	44 : 9.08;	47 : 0.52;
	48 : 75;	49 : 39584;	50 : 0.2;	51 : 1218;	54 : 0.04;

Origin  42
	1 : 222.64;	3 : 1;	6 : 44.4;	7 : 0.04;	8 : 0.16;
	9 : 0.8;	10 : 306.28;	11 : 40;	12 : 0.24;	13 : 0.2;
	14 : 4.44;	15 : 2.84;	16 : 20.48;	17 : 18.44;	18 : 2.2;
	19 : 52240;	21 : 0.04;	30 : 0.08;	31 : 4.64;	34 : 417.2;
	37 : 0.04;	40 : 1653.2;	41 : 8612;	43 : 771.2;	44 : 922.8;
	47 : 82240;	48 : 15984;	49 : 39268;	54 : 0.24;
Origin  43
	1 : 32316;	2 : 0.12;	3 : 1.2;	6 : 2024.8;	7 : 0.24;
	8 : 0.52;	9 : 1112.4;	10 : 28244;	11 : 22.16;	13 : 0.08;
	14 : 620.4;	15 : 386.72;	17 : 312880;	18 : 7480;	19 : 24544;
	20 : 0.36;	22 : 53.68;	29 : 19884;	30 : 79200;	34 : 33.44;
	36 : 22936;	37 : 10368;	38 : 2.16;	39 : 27.64;	40 : 32356;
	41 : 73.2;	42 : 572;	44 : 564.4;	45 : 1.12;	46 : 13.92;
	47 : 81560;	48 : 5292;	49 : 2154;	50 : 346.48;	51 : 6432;
	55 : 0.08;
Origin  44
	1 : 48.12;	3 : 1014.4;	6 : 937.2;	7 : 64400;	8 : 1845.6;
	9 : 22436;	10 : 1081.2;	11 : 3507.6;	12 : 227.92;	13 : 544.8;
	14 : 99.04;	15 : 86.92;	16 : 169.88;	17 : 511.6;	18 : 209.4;
	19 : 191920;	22 : 4.24;	29 : 0.08;	30 : 0.16;	34 : 302;
	37 : 0.36;	40 : 78840;	41 : 12.16;	42 : 871.2;	43 : 762.8;
	45 : 2.84;	47 : 0.04;	48 : 10636;	49 : 8388;
Origin  45
	1 : 0.08;	2 : 20.76;	3 : 22.04;	4 : 90.28;	5 : 6.96;
	6 : 1188;	7 : 151.56;	8 : 84.08;	9 : 33.2;	10 : 71.16;
	11 : 0.84;	12 : 225.72;	13 : 294.24;	14 : 28.92;	15 : 0.2;
	16 : 230.4;	17 : 208.64;	18 : 6.96;	19 : 3.92;	20 : 0.08;
	21 : 40800;	22 : 3164;	23 : 5.16;	24 : 1364.8;	25 : 81120;
	26 : 2007.2;	27 : 2.32;	28 : 1902;	29 : 0.32;	30 : 2.08;
	31 : 3.28;	32 : 1016.8;	33 : 0.08;	34 : 739.6;	35 : 88.56;
	38 : 2.44;	39 : 41.84;	43 : 1.48;	44 : 3.4;	46 : 0.08;
	48 : 0.04;	49 : 0.4;	50 : 0.24;	51 : 0.04;	54 : 1.2;
	55 : 19.48;
Origin  46
	2 : 1282;	3 : 5.04;	4 : 0.64;	6 : 191.76;	7 : 39.28;
	8 : 2798;	9 : 1.04;	10 : 16.12;	11 : 0.32;	12 : 263.32;
	13 : 3748.4;	14 : 8016;	15 : 6.72;	16 : 436;	17 : 974.8;
	18 : 343.76;	19 : 9528;	20 : 2503.2;	21 : 24;	22 : 250;
	24 : 13256;	25 : 1514.8;	26 : 2.28;	27 : 3.04;	28 : 5120;
	29 : 22.32;	30 : 19.16;	31 : 11;	32 : 211200;	33 : 0.8;
	34 : 272.4;	35 : 0.12;	37 : 0.08;	38 : 1.68;	39 : 646;
	40 : 0.2;	43 : 18.8;	44 : 0.04;	45 : 0.08;	47 : 200440;
	48 : 0.04;	49 : 7;	50 : 0.08;	51 : 0.16;	54 : 2.88;
	55 : 71.32;
Origin  47
	1 : 500.8;	2 : 4.68;	3 : 189.32;	4 : 401760;	5 : 5.4;
	6 : 91.72;	7 : 1.32;	8 : 2399.6;	10 : 0.72;	11 : 0.04;
	12 : 48040;	13 : 39408;	14 : 204880;	15 : 1541.2;	16 : 101.92;
	18 : 33204;	19 : 41520;	20 : 216560;	21 : 11.32;	22 : 0.64;
	23 : 37816;	24 : 40600;	25 : 99680;	26 : 72000;	27 : 35.8;
	28 : 40320;	29 : 56.72;	30 : 53.16;	31 : 0.52;	32 : 21280;
	34 : 35.44;	35 : 3.6;	36 : 13.12;	38 : 0.16;	39 : 166.16;
	40 : 8;	41 : 0.68;	42 : 94040;	43 : 110320;	44 : 0.04;
	46 : 241680;	49 : 18968;	50 : 0.2;	53 : 0.08;	54 : 29.76;
	55 : 40320;
Origin  48
	2 : 0.08;	3 : 0.04;	7 : 0.6;	8 : 10216;	9 : 5332;
	10 : 15672;	11 : 69840;	12 : 3.84;	13 : 10344;	14 : 364.28;
	15 : 297360;	16 : 195560;	17 : 12.12;	18 : 311.12;	19 : 63.28;
	21 : 42600;	22 : 5.56;	24 : 2.64;	25 : 1.96;	26 : 118960;
	27 : 18.36;	28 : 65560;	29 : 0.28;	30 : 6.4;	31 : 0.24;
	34 : 18852;	37 : 0.36;	38 : 0.04;	39 : 0.16;	40 : 49400;
	41 : 57.08;	42 : 17280;	43 : 4212;	44 : 11576;	49 : 57600;
	51 : 0.04;	54 : 0.6;	55 : 62200;
Origin  49
	1 : 1;	2 : 0.24;	3 : 4020;	4 : 0.04;	5 : 0.24;
	7 : 1.2;	8 : 0.48;	11 : 9148;	12 : 0.36;	14 : 2.4;
	15 : 0.44;	17 : 524;	18 : 4340;	19 : 12744;	20 : 0.12;
	25 : 0.56;	31 : 0.48;	34 : 105400;	37 : 0.04;	40 : 14980;
	41 : 39728;	42 : 42920;	43 : 2912;	44 : 8428;	45 : 0.28;
	46 : 5.16;	47 : 14036;	48 : 51520;
Origin  50
	1 : 0.32;	2 : 0.04;	3 : 1033.2;	4 : 0.44;	6 : 0.04;
	7 : 16.4;	8 : 6220;	9 : 1.2;	10 : 2136.4;	12 : 0.04;
	13 : 0.16;	14 : 28.16;	15 : 16.2;	17 : 1.2;	18 : 715.2;
	19 : 0.64;	20 : 0.04;	21 : 15420;	22 : 0.56;	23 : 0.08;
	25 : 129.68;	27 : 5.92;	29 : 0.8;	30 : 77.08;	31 : 1080;
	32 : 73.84;	33 : 13044;	34 : 308960;	35 : 63.28;	36 : 56.48;
	37 : 1.8;	38 : 186.6;	39 : 84.88;	41 : 0.2;	43 : 468.8;
	45 : 0.16;	46 : 0.04;	47 : 0.16;	51 : 6.6;	54 : 0.16;

Origin  51
	1 : 365.32;	2 : 290.6;	4 : 71.44;	7 : 5.16;	8 : 24.8;
	9 : 3.36;	10 : 4.56;	13 : 0.08;	14 : 12.92;	15 : 0.2;
	17 : 0.84;	18 : 0.36;	20 : 0.12;	21 : 0.76;	25 : 0.6;
	27 : 0.08;	29 : 0.2;	30 : 154.12;	31 : 101.04;	32 : 0.08;
	33 : 15.32;	34 : 1.88;	35 : 0.68;	36 : 8.92;	37 : 65.32;
	38 : 667.6;	39 : 3502.8;	41 : 1546.4;	43 : 8676;	46 : 0.12;
	48 : 0.04;	50 : 7.8;	54 : 0.08;
Origin  52
	4 : 2.36;	12 : 0.04;	21 : 3310.4;	22 : 31.36;	23 : 0.12;
	24 : 2.68;	29 : 0.04;	32 : 0.2;	35 : 0.12;	53 : 3190.8;
	54 : 51800;
Origin  53
	4 : 0.2;	21 : 276080;	22 : 10708;	23 : 0.04;	24 : 12.8;
	25 : 0.04;	29 : 204;	30 : 0.16;	32 : 2262;	35 : 0.16;
	47 : 0.08;	52 : 4312;	54 : 5180;
Origin  54
	1 : 0.68;	2 : 0.16;	4 : 648.4;	6 : 0.04;	10 : 0.16;
	11 : 8.4;	12 : 0.04;	13 : 0.04;	14 : 0.84;	16 : 0.16;
	17 : 1.44;	20 : 2.28;	21 : 3440.4;	22 : 4960;	23 : 9764;
	24 : 151520;	25 : 206.28;	26 : 3.32;	27 : 0.32;	29 : 48.68;
	30 : 37980;	31 : 28.4;	32 : 9956;	34 : 0.12;	35 : 11008;
	37 : 0.16;	38 : 48.88;	39 : 146.24;	41 : 0.08;	42 : 0.2;
	45 : 0.88;	46 : 2.16;	47 : 22.64;	48 : 0.76;	50 : 0.2;
	51 : 0.08;	52 : 56400;	53 : 7008;
Origin  55
	1 : 50.2;	2 : 3458.4;	3 : 0.8;	4 : 2.2;	7 : 1.24;
	8 : 0.36;	9 : 0.08;	10 : 745.6;	11 : 23.8;	13 : 680.8;
	14 : 35272;	15 : 1489.2;	16 : 12888;	17 : 1230;	18 : 110.76;
	19 : 1301.6;	20 : 73.4;	23 : 0.08;	25 : 0.52;	28 : 40;
	29 : 0.32;	30 : 0.04;	31 : 1.12;	32 : 160.72;	33 : 11.24;
	34 : 0.04;	35 : 0.84;	38 : 1.16;	39 : 0.32;	43 : 0.04;
	45 : 24.96;	46 : 73.4;	47 : 53880;	48 : 84080;