<NUMBER OF ZONES> 55
<NUMBER OF NODES> 1609
<FIRST THRU NODE> 56
<NUMBER OF LINKS> 3264
<END OF METADATA> 
~	Init node	Term node	Capacity	Length	Free Flow Time	B	Power	Speed limit	Toll	Type	;
1	304	1.49999e+006	0.33	0.75	0.1	1.5	50	0	1;
1	425	1.49999e+006	0.32	0.75	0.1	1.5	80	0	1;
1	513	1.49999e+006	0.11	0.75	0.1	1.5	100	0	1;
1	536	1.49999e+006	0.39	0.75	0.1	1.5	70.4496	0	1;
1	566	1.49999e+006	0.2	0.75	0.1	1.5	30	0	1;
2	732	1.49999e+006	0.25	0.75	0.1	1.5	50	0	1;
2	759	1.49999e+006	0.19	0.75	0.1	1.5	80	0	1;
3	831	1.49999e+006	0.16	0.75	0.1	1.5	100	0	1;
3	906	1.49999e+006	0.24	0.75	0.1	1.5	120	0	1;
3	950	1.49999e+006	0.34	0.75	0.1	1.5	30	0	1;
4	486	1.49999e+006	0.36	0.75	0.1	1.5	50	0	1;
4	622	1.49999e+006	0.1	0.75	0.1	1.5	80	0	1;
4	636	1.49999e+006	0.12	0.75	0.1	1.5	100	0	1;
4	704	1.49999e+006	0.36	0.75	0.1	1.5	120	0	1;
5	600	1.49999e+006	0.14	0.75	0.1	1.5	30	0	1;
5	644	1.49999e+006	0.19	0.75	0.1	1.5	50	0	1;
6	682	1.49999e+006	0.2	0.75	0.1	1.5	80	0	1;
6	769	1.49999e+006	0.1	0.75	0.1	1.5	100	0	1;
7	995	1.49999e+006	0.1	0.75	0.1	1.5	63.9055	0	1;
7	1055	1.49999e+006	0.18	0.75	0.1	1.5	63.9055	0	1;
7	1065	1.49999e+006	0.37	0.75	0.1	1.5	50	0	1;
7	1099	1.49999e+006	0.25	0.75	0.1	1.5	80	0	1;
8	986	1.49999e+006	0.24	0.75	0.1	1.5	63.9055	0	1;
8	1054	1.49999e+006	0.09	0.75	0.1	1.5	63.9055	0	1;
8	1100	1.49999e+006	0.24	0.75	0.1	1.5	63.9055	0	1;
8	1133	1.49999e+006	0.23	0.75	0.1	1.5	63.9055	0	1;
9	1240	1.49999e+006	0.11	0.75	0.1	1.5	80	0	1;
9	1241	1.49999e+006	0.07	0.75	0.1	1.5	100	0	1;
9	1310	1.49999e+006	0.23	0.75	0.1	1.5	120	0	1;
10	1156	1.49999e+006	0.3	0.75	0.1	1.5	63.9055	0	1;
10	1184	1.49999e+006	0.34	0.75	0.1	1.5	50	0	1;
10	1197	1.49999e+006	0.18	0.75	0.1	1.5	80	0	1;
10	1207	1.49999e+006	0.11	0.75	0.1	1.5	100	0	1;
10	1239	1.49999e+006	0.48	0.75	0.1	1.5	120	0	1;
10	1254	1.49999e+006	0.12	0.75	0.1	1.5	30	0	1;
10	1327	1.49999e+006	0.57	0.75	0.1	1.5	50	0	1;
11	1326	1.49999e+006	1.45	0.75	0.1	1.5	80	0	1;
11	1343	1.49999e+006	1.46	0.75	0.1	1.5	100	0	1;
11	1579	1.49999e+006	0.76	0.75	0.1	1.5	120	0	1;
12	635	1.49999e+006	0.08	0.75	0.1	1.5	30	0	1;
12	655	1.49999e+006	0.09	0.75	0.1	1.5	50	0	1;
12	719	1.49999e+006	0.22	0.75	0.1	1.5	80	0	1;
13	1053	1.49999e+006	0.21	0.75	0.1	1.5	63.9055	0	1;
13	1062	1.49999e+006	0.12	0.75	0.1	1.5	63.9055	0	1;
14	1026	1.49999e+006	0.21	0.75	0.1	1.5	30	0	1;
14	1089	1.49999e+006	0.16	0.75	0.1	1.5	50	0	1;
14	1090	1.49999e+006	0.21	0.75	0.1	1.5	80	0	1;
15	1204	1.49999e+006	0.1	0.75	0.1	1.5	63.9055	0	1;
15	1212	1.49999e+006	0.12	0.75	0.1	1.5	63.9055	0	1;
15	1273	1.49999e+006	0.21	0.75	0.1	1.5	63.9055	0	1;
15	1606	1.49999e+006	0.24	0.75	0.1	1.5	50	0	1;
16	765	1.49999e+006	0.39	0.75	0.1	1.5	80	0	1;
16	984	1.49999e+006	0.24	0.75	0.1	1.5	100	0	1;
17	1220	1.49999e+006	1.08	0.75	0.1	1.5	120	0	1;
17	1405	1.49999e+006	0.76	0.75	0.1	1.5	30	0	1;
17	1543	1.49999e+006	0.35	0.75	0.1	1.5	50	0	1;
18	1234	1.49999e+006	0.43	0.75	0.1	1.5	80	0	1;
18	1288	1.49999e+006	0.24	0.75	0.1	1.5	13.7588	0	1;
18	1320	1.49999e+006	0.35	0.75	0.1	1.5	120	0	1;
18	1424	1.49999e+006	0.18	0.75	0.1	1.5	30	0	1;
19	1594	1.49999e+006	0.58	0.75	0.1	1.5	50	0	1;
19	1599	1.49999e+006	0.36	0.75	0.1	1.5	80	0	1;
20	1451	1.49999e+006	0.61	0.75	0.1	1.5	100	0	1;
21	60	1.49999e+006	0.09	0.75	0.1	1.5	120	0	1;
21	65	1.49999e+006	0.17	0.75	0.1	1.5	30	0	1;
21	89	1.49999e+006	0.54	0.75	0.1	1.5	50	0	1;
21	126	1.49999e+006	0.67	0.75	0.1	1.5	80	0	1;
22	96	1.49999e+006	0.13	0.75	0.1	1.5	100	0	1;
22	107	1.49999e+006	0.3	0.75	0.1	1.5	120	0	1;
22	117	1.49999e+006	0.14	0.75	0.1	1.5	30	0	1;
22	136	1.49999e+006	0.18	0.75	0.1	1.5	50	0	1;
22	176	1.49999e+006	0.72	0.75	0.1	1.5	80	0	1;
22	181	1.49999e+006	0.37	0.75	0.1	1.5	100	0	1;
23	233	1.49999e+006	0.22	0.75	0.1	1.5	120	0	1;
23	393	1.49999e+006	0.23	0.75	0.1	1.5	30	0	1;
23	414	1.49999e+006	0.3	0.75	0.1	1.5	50	0	1;
24	378	1.49999e+006	0.21	0.75	0.1	1.5	80	0	1;
24	389	1.49999e+006	0.26	0.75	0.1	1.5	100	0	1;
24	415	1.49999e+006	0.3	0.75	0.1	1.5	43.1862	0	1;
24	488	1.49999e+006	0.43	0.75	0.1	1.5	30	0	1;
25	252	1.49999e+006	0.12	0.75	0.1	1.5	50	0	1;
25	272	1.49999e+006	0.08	0.75	0.1	1.5	80	0	1;
25	376	1.49999e+006	0.29	0.75	0.1	1.5	100	0	1;
25	407	1.49999e+006	0.34	0.75	0.1	1.5	120	0	1;
26	372	1.49999e+006	0.15	0.75	0.1	1.5	30	0	1;
26	373	1.49999e+006	0.35	0.75	0.1	1.5	50	0	1;
26	427	1.49999e+006	0.2	0.75	0.1	1.5	80	0	1;
26	449	1.49999e+006	0.16	0.75	0.1	1.5	100	0	1;
27	216	1.49999e+006	0.5	0.75	0.1	1.5	120	0	1;
27	322	1.49999e+006	0.22	0.75	0.1	1.5	30	0	1;
27	388	1.49999e+006	0.11	0.75	0.1	1.5	50	0	1;
28	104	1.49999e+006	1.1	0.75	0.1	1.5	80	0	1;
29	261	1.49999e+006	0.38	0.75	0.1	1.5	100	0	1;
29	351	1.49999e+006	0.55	0.75	0.1	1.5	120	0	1;
29	402	1.49999e+006	0.67	0.75	0.1	1.5	30	0	1;
30	514	1.49999e+006	0.29	0.75	0.1	1.5	50	0	1;
30	696	1.49999e+006	0.27	0.75	0.1	1.5	80	0	1;
31	571	1.49999e+006	0.22	0.75	0.1	1.5	100	0	1;
31	657	1.49999e+006	0.11	0.75	0.1	1.5	120	0	1;
32	355	1.49999e+006	0.16	0.75	0.1	1.5	30	0	1;
32	397	1.49999e+006	0.16	0.75	0.1	1.5	50	0	1;
32	403	1.49999e+006	0.24	0.75	0.1	1.5	80	0	1;
33	556	1.49999e+006	0.46	0.75	0.1	1.5	16.776	0	1;
33	608	1.49999e+006	0.26	0.75	0.1	1.5	80.6089	0	1;
33	707	1.49999e+006	0.07	0.75	0.1	1.5	30	0	1;
33	744	1.49999e+006	0.27	0.75	0.1	1.5	50	0	1;
34	811	1.49999e+006	0.11	0.75	0.1	1.5	80	0	1;
34	863	1.49999e+006	0.11	0.75	0.1	1.5	100	0	1;
34	930	1.49999e+006	0.25	0.75	0.1	1.5	120	0	1;
35	91	1.49999e+006	0.41	0.75	0.1	1.5	30	0	1;
35	135	1.49999e+006	0.37	0.75	0.1	1.5	50	0	1;
35	149	1.49999e+006	0.09	0.75	0.1	1.5	81.6253	0	1;
35	209	1.49999e+006	0.33	0.75	0.1	1.5	17.2477	0	1;
35	258	1.49999e+006	0.48	0.75	0.1	1.5	120	0	1;
35	287	1.49999e+006	0.55	0.75	0.1	1.5	30	0	1;
36	869	1.49999e+006	0.8	0.75	0.1	1.5	50	0	1;
36	1190	1.49999e+006	1.25	0.75	0.1	1.5	80	0	1;
37	222	1.49999e+006	1.8	0.75	0.1	1.5	100	0	1;
37	284	1.49999e+006	2.02	0.75	0.1	1.5	120	0	1;
38	823	1.49999e+006	0.33	0.75	0.1	1.5	30	0	1;
38	846	1.49999e+006	0.26	0.75	0.1	1.5	50	0	1;
38	871	1.49999e+006	0.22	0.75	0.1	1.5	80	0	1;
38	916	1.49999e+006	0.11	0.75	0.1	1.5	100	0	1;
39	1094	1.49999e+006	0.11	0.75	0.1	1.5	120	0	1;
39	1148	1.49999e+006	0.27	0.75	0.1	1.5	30	0	1;
39	1149	1.49999e+006	0.19	0.75	0.1	1.5	50	0	1;
40	1153	1.49999e+006	0.3	0.75	0.1	1.5	80	0	1;
41	945	1.49999e+006	0.43	0.75	0.1	1.5	100	0	1;
41	998	1.49999e+006	0.43	0.75	0.1	1.5	120	0	1;
41	1048	1.49999e+006	0.15	0.75	0.1	1.5	30	0	1;
41	1093	1.49999e+006	0.23	0.75	0.1	1.5	50	0	1;
41	1224	1.49999e+006	0.33	0.75	0.1	1.5	80	0	1;
42	1369	1.49999e+006	0.32	0.75	0.1	1.5	100	0	1;
42	1370	1.49999e+006	0.26	0.75	0.1	1.5	120	0	1;
42	1386	1.49999e+006	0.39	0.75	0.1	1.5	30	0	1;
42	1473	1.49999e+006	0.19	0.75	0.1	1.5	50	0	1;
43	1171	1.49999e+006	0.26	0.75	0.1	1.5	80	0	1;
43	1242	1.49999e+006	0.22	0.75	0.1	1.5	100	0	1;
43	1266	1.49999e+006	0.09	0.75	0.1	1.5	120	0	1;
43	1301	1.49999e+006	0.18	0.75	0.1	1.5	30	0	1;
44	1415	1.49999e+006	0.41	0.75	0.1	1.5	32.7528	0	1;
44	1441	1.49999e+006	0.29	0.75	0.1	1.5	80	0	1;
44	1510	1.49999e+006	0.22	0.75	0.1	1.5	100	0	1;
44	1571	1.49999e+006	0.27	0.75	0.1	1.5	120	0	1;
45	966	1.49999e+006	1.04	0.75	0.1	1.5	30	0	1;
46	1451	1.49999e+006	0.84	0.75	0.1	1.5	50	0	1;
47	1598	1.49999e+006	1.66	0.75	0.1	1.5	80	0	1;
48	1593	1.49999e+006	1.92	0.75	0.1	1.5	100	0	1;
49	1364	1.49999e+006	0.75	0.75	0.1	1.5	120	0	1;
50	869	1.49999e+006	0.36	0.75	0.1	1.5	30	0	1;
51	284	1.49999e+006	0.45	0.75	0.1	1.5	50	0	1;
52	65	1.49999e+006	0.74	0.75	0.1	1.5	80	0	1;
53	56	1.49999e+006	1.14	0.75	0.1	1.5	100	0	1;
54	63	1.49999e+006	0.68	0.75	0.1	1.5	120	0	1;
55	104	1.49999e+006	1.52	0.75	0.1	1.5	30	0	1;
56	53	1.49999e+006	1.14	0.75	0.1	1.5	50	0	1;
56	57	31500	0.25	0.75	0.1	1.5	80	0	1;
56	58	24000	0.33	0.75	0.1	1.5	100	0	1;
57	56	31500	0.25	0.75	0.1	1.5	120	0	1;
57	59	31500	0.15	0.75	0.1	1.5	30	0	1;
58	61	24000	0.23	0.75	0.1	1.5	50	0	1;
59	57	31500	0.15	0.75	0.1	1.5	80	0	1;
59	66	31500	0.27	0.75	0.1	1.5	100	0	1;
60	21	1.49999e+006	0.09	0.75	0.1	1.5	120	0	1;
60	57	13500	0.21	0.75	0.1	1.5	30	0	1;
61	76	24000	0.32	0.75	0.1	1.5	50	0	1;
62	61	13500	0.13	0.75	0.1	1.5	80	0	1;
63	54	1.49999e+006	0.68	0.75	0.1	1.5	100	0	1;
63	60	13500	0.19	0.75	0.1	1.5	120	0	1;
63	62	13500	0.09	0.75	0.1	1.5	30	0	1;
63	64	11250	0.08	0.75	0.1	1.5	50	0	1;
64	72	11250	0.09	0.75	0.1	1.5	80	0	1;
65	21	1.49999e+006	0.17	0.75	0.1	1.5	100	0	1;
65	52	1.49999e+006	0.74	0.75	0.1	1.5	120	0	1;
65	72	11250	0.27	0.75	0.1	1.5	30	0	1;
66	84	31500	0.25	0.75	0.1	1.5	50	0	1;
67	63	13500	0.04	0.75	0.1	1.5	80	0	1;
68	59	31500	0.29	0.75	0.1	1.5	100	0	1;
68	67	13500	0.03	0.75	0.1	1.5	120	0	1;
69	70	11250	0.32	0.75	0.1	1.5	30	0	1;
70	73	7500	0.05	0.75	0.1	1.5	50	0	0;
70	75	11250	0.12	0.75	0.1	1.5	80	0	1;
71	67	13500	0.08	0.75	0.1	1.5	100	0	1;
72	65	11250	0.27	0.75	0.1	1.5	120	0	1;
72	69	11250	0.1	0.75	0.1	1.5	30	0	1;
72	83	11250	0.22	0.75	0.1	1.5	50	0	1;
73	70	7500	0.05	0.75	0.1	1.5	80	0	1;
73	74	11250	0.1	0.75	0.1	1.5	100	0	1;
73	96	9000	0.19	0.75	0.1	1.5	120	0	1;
74	73	11250	0.1	0.75	0.1	1.5	30	0	0;
74	77	11250	0.11	0.75	0.1	1.5	50	0	1;
75	86	11250	0.2	0.75	0.1	1.5	80	0	1;
76	79	13500	0.11	0.75	0.1	1.5	100	0	1;
76	84	13500	0.1	0.75	0.1	1.5	120	0	0;
77	74	11250	0.11	0.75	0.1	1.5	30	0	1;
77	81	11250	0.07	0.75	0.1	1.5	50	0	1;
78	73	11250	0.11	0.75	0.1	1.5	80	0	1;
79	71	13500	0.11	0.75	0.1	1.5	100	0	1;
79	80	11250	0.12	0.75	0.1	1.5	120	0	1;
79	87	13500	0.09	0.75	0.1	1.5	30	0	1;
80	64	11250	0.22	0.75	0.1	1.5	50	0	0;
80	79	11250	0.12	0.75	0.1	1.5	80	0	1;
80	83	11250	0.08	0.75	0.1	1.5	100	0	1;
81	77	11250	0.07	0.75	0.1	1.5	120	0	1;
81	90	11250	0.12	0.75	0.1	1.5	30	0	1;
82	78	11250	0.12	0.75	0.1	1.5	50	0	1;
83	72	11250	0.22	0.75	0.1	1.5	80	0	1;
83	80	11250	0.08	0.75	0.1	1.5	100	0	1;
83	85	11250	0.11	0.75	0.1	1.5	120	0	1;
83	102	11250	0.11	0.75	0.1	1.5	30	0	1;
84	113	31500	0.19	0.75	0.1	1.5	50	0	1;
85	69	11250	0.22	0.75	0.1	1.5	80	0	0;
85	83	11250	0.11	0.75	0.1	1.5	100	0	1;
85	86	11250	0.09	0.75	0.1	1.5	120	0	0;
86	85	11250	0.09	0.75	0.1	1.5	30	0	1;
86	97	11250	0.09	0.75	0.1	1.5	50	0	1;
87	79	13500	0.09	0.75	0.1	1.5	80	0	1;
87	89	11250	0.07	0.75	0.1	1.5	100	0	1;
87	98	13500	0.07	0.75	0.1	1.5	120	0	1;
88	68	31500	0.27	0.75	0.1	1.5	30	0	1;
89	21	1.49999e+006	0.54	0.75	0.1	1.5	50	0	1;
89	87	11250	0.07	0.75	0.1	1.5	80	0	1;
89	94	11250	0.06	0.75	0.1	1.5	100	0	1;
90	81	11250	0.12	0.75	0.1	1.5	120	0	1;
90	99	11250	0.07	0.75	0.1	1.5	30	0	1;
91	35	1.49999e+006	0.41	0.75	0.1	1.5	50	0	1;
91	132	9000	0.36	0.75	0.1	1.5	80	0	1;
92	82	11250	0.05	0.75	0.1	1.5	100	0	1;
92	93	9000	0.03	0.75	0.1	1.5	120	0	0;
93	82	11250	0.04	0.75	0.1	1.5	30	0	1;
93	92	9000	0.03	0.75	0.1	1.5	50	0	1;
93	95	9000	0.08	0.75	0.1	1.5	80	0	1;
94	80	11250	0.1	0.75	0.1	1.5	100	0	1;
94	89	11250	0.06	0.75	0.1	1.5	120	0	1;
94	102	11250	0.09	0.75	0.1	1.5	30	0	1;
95	78	9000	0.13	0.75	0.1	1.5	50	0	1;
95	93	9000	0.08	0.75	0.1	1.5	80	0	0;
95	96	9000	0.1	0.75	0.1	1.5	100	0	1;
96	22	1.49999e+006	0.13	0.75	0.1	1.5	120	0	1;
96	95	9000	0.1	0.75	0.1	1.5	30	0	1;
96	100	9000	0.09	0.75	0.1	1.5	50	0	1;
97	106	11250	0.06	0.75	0.1	1.5	80	0	1;
98	87	13500	0.07	0.75	0.1	1.5	100	0	1;
98	114	13500	0.07	0.75	0.1	1.5	120	0	1;
99	90	11250	0.07	0.75	0.1	1.5	30	0	1;
99	108	11250	0.07	0.75	0.1	1.5	50	0	1;
100	96	9000	0.09	0.75	0.1	1.5	80	0	1;
100	101	9000	0.09	0.75	0.1	1.5	100	0	1;
101	100	9000	0.09	0.75	0.1	1.5	120	0	1;
101	103	9000	0.09	0.75	0.1	1.5	30	0	1;
102	94	11250	0.09	0.75	0.1	1.5	50	0	1;
102	106	11250	0.11	0.75	0.1	1.5	80	0	0;
103	101	9000	0.09	0.75	0.1	1.5	100	0	1;
103	107	9000	0.1	0.75	0.1	1.5	120	0	1;
104	28	1.49999e+006	1.1	0.75	0.1	1.5	30	0	1;
104	55	1.49999e+006	1.52	0.75	0.1	1.5	50	0	1;
104	112	12000	0.11	0.75	0.1	1.5	80	0	1;
105	102	9000	0.03	0.75	0.1	1.5	10.4418	0	1;
106	85	11250	0.13	0.75	0.1	1.5	120	0	1;
106	102	11250	0.11	0.75	0.1	1.5	30	0	1;
106	116	11250	0.1	0.75	0.1	1.5	50	0	1;
107	22	1.49999e+006	0.3	0.75	0.1	1.5	80	0	1;
107	103	9000	0.1	0.75	0.1	1.5	100	0	1;
107	115	9000	0.08	0.75	0.1	1.5	120	0	1;
108	99	11250	0.07	0.75	0.1	1.5	30	0	1;
108	121	11250	0.17	0.75	0.1	1.5	50	0	1;
109	92	11250	0.16	0.75	0.1	1.5	80	0	1;
109	106	11250	0.05	0.75	0.1	1.5	100	0	0;
110	105	9000	0.05	0.75	0.1	1.5	10.4418	0	1;
111	93	11250	0.14	0.75	0.1	1.5	30	0	1;
111	109	11250	0.11	0.75	0.1	1.5	50	0	0;
112	104	12000	0.11	0.75	0.1	1.5	80	0	1;
112	138	12000	0.16	0.75	0.1	1.5	100	0	1;
113	139	31500	0.18	0.75	0.1	1.5	120	0	1;
114	98	13500	0.07	0.75	0.1	1.5	30	0	1;
114	126	13500	0.11	0.75	0.1	1.5	50	0	1;
115	107	9000	0.08	0.75	0.1	1.5	80	0	1;
115	127	10500	0.15	0.75	0.1	1.5	100	0	0;
115	129	9000	0.1	0.75	0.1	1.5	120	0	1;
116	120	9000	0.04	0.75	0.1	1.5	30	0	1;
116	130	11250	0.13	0.75	0.1	1.5	50	0	1;
117	22	1.49999e+006	0.14	0.75	0.1	1.5	80	0	1;
117	111	11250	0.13	0.75	0.1	1.5	100	0	0;
118	107	9000	0.14	0.75	0.1	1.5	31.9955	0	1;
119	88	31500	0.21	0.75	0.1	1.5	30	0	1;
120	109	11250	0.11	0.75	0.1	1.5	50	0	1;
120	122	9000	0.08	0.75	0.1	1.5	80	0	1;
121	108	11250	0.17	0.75	0.1	1.5	100	0	1;
121	142	11250	0.11	0.75	0.1	1.5	120	0	1;
122	125	9000	0.09	0.75	0.1	1.5	30	0	0;
123	117	11250	0.21	0.75	0.1	1.5	50	0	1;
123	118	9000	0.12	0.75	0.1	1.5	31.9955	0	1;
123	127	7500	0.13	0.75	0.1	1.5	23.5931	0	0;
124	129	9000	0.05	0.75	0.1	1.5	120	0	1;
125	111	11250	0.1	0.75	0.1	1.5	30	0	1;
125	128	9000	0.06	0.75	0.1	1.5	50	0	1;
126	21	1.49999e+006	0.67	0.75	0.1	1.5	80	0	1;
126	114	13500	0.11	0.75	0.1	1.5	100	0	1;
126	130	11250	0.19	0.75	0.1	1.5	10.4418	0	0;
126	141	13500	0.05	0.75	0.1	1.5	30	0	1;
127	115	12000	0.15	0.75	0.1	1.5	50	0	1;
127	123	11250	0.13	0.75	0.1	1.5	80	0	1;
127	136	12000	0.09	0.75	0.1	1.5	100	0	1;
127	146	11250	0.08	0.75	0.1	1.5	120	0	1;
128	131	9000	0.08	0.75	0.1	1.5	30	0	1;
129	115	9000	0.1	0.75	0.1	1.5	50	0	1;
129	133	9000	0.04	0.75	0.1	1.5	80	0	1;
130	110	9000	0.14	0.75	0.1	1.5	10.4418	0	1;
130	126	11250	0.19	0.75	0.1	1.5	120	0	1;
130	165	11250	0.16	0.75	0.1	1.5	30	0	1;
131	134	9000	0.13	0.75	0.1	1.5	50	0	1;
132	91	9000	0.36	0.75	0.1	1.5	80	0	1;
132	124	9000	0.05	0.75	0.1	1.5	100	0	1;
132	153	10500	0.09	0.75	0.1	1.5	120	0	1;
133	145	9000	0.04	0.75	0.1	1.5	30	0	1;
134	123	9000	0.1	0.75	0.1	1.5	50	0	1;
134	136	9000	0.13	0.75	0.1	1.5	80	0	1;
134	154	9000	0.08	0.75	0.1	1.5	100	0	1;
135	35	1.49999e+006	0.37	0.75	0.1	1.5	120	0	1;
135	158	11250	0.15	0.75	0.1	1.5	30	0	1;
136	22	1.49999e+006	0.18	0.75	0.1	1.5	50	0	1;
136	127	10500	0.09	0.75	0.1	1.5	80	0	0;
136	154	12000	0.16	0.75	0.1	1.5	100	0	1;
137	120	11250	0.1	0.75	0.1	1.5	120	0	1;
138	112	12000	0.16	0.75	0.1	1.5	30	0	1;
138	234	12000	0.35	0.75	0.1	1.5	50	0	1;
139	162	31500	0.18	0.75	0.1	1.5	80	0	1;
140	119	31500	0.11	0.75	0.1	1.5	100	0	1;
141	126	13500	0.05	0.75	0.1	1.5	120	0	1;
141	150	13500	0.05	0.75	0.1	1.5	30	0	1;
142	121	11250	0.11	0.75	0.1	1.5	50	0	1;
142	170	11250	0.18	0.75	0.1	1.5	80	0	1;
143	132	9000	0.07	0.75	0.1	1.5	100	0	1;
143	156	10500	0.08	0.75	0.1	1.5	120	0	1;
144	137	9000	0.12	0.75	0.1	1.5	30	0	0;
145	152	9000	0.04	0.75	0.1	1.5	50	0	0;
145	160	12000	0.09	0.75	0.1	1.5	80	0	1;
146	127	7500	0.08	0.75	0.1	1.5	100	0	1;
146	133	12000	0.16	0.75	0.1	1.5	120	0	1;
146	166	11250	0.07	0.75	0.1	1.5	119.7	0	1;
147	125	11250	0.09	0.75	0.1	1.5	50	0	1;
147	144	9000	0.11	0.75	0.1	1.5	80	0	1;
148	134	9000	0.11	0.75	0.1	1.5	100	0	1;
149	35	1.49999e+006	0.09	0.75	0.1	1.5	16.459	0	1;
149	183	9000	0.15	0.75	0.1	1.5	81.6253	0	0;
150	141	13500	0.05	0.75	0.1	1.5	50	0	1;
150	161	13500	0.05	0.75	0.1	1.5	80	0	1;
151	137	11250	0.08	0.75	0.1	1.5	100	0	1;
152	143	9000	0.07	0.75	0.1	1.5	120	0	1;
153	132	10500	0.09	0.75	0.1	1.5	30	0	1;
153	171	10500	0.1	0.75	0.1	1.5	50	0	1;
154	136	12000	0.16	0.75	0.1	1.5	80	0	1;
154	168	12000	0.1	0.75	0.1	1.5	100	0	1;
155	147	9000	0.1	0.75	0.1	1.5	120	0	0;
155	148	9000	0.08	0.75	0.1	1.5	30	0	1;
156	179	10500	0.09	0.75	0.1	1.5	50	0	1;
157	146	12000	0.15	0.75	0.1	1.5	76.0104	0	0;
158	135	11250	0.15	0.75	0.1	1.5	100	0	1;
158	174	11250	0.1	0.75	0.1	1.5	120	0	1;
159	147	11250	0.06	0.75	0.1	1.5	30	0	1;
159	155	9000	0.09	0.75	0.1	1.5	50	0	1;
160	145	12000	0.09	0.75	0.1	1.5	66.3055	0	1;
160	166	9000	0.09	0.75	0.1	1.5	100	0	0;
160	191	12000	0.15	0.75	0.1	1.5	120	0	0;
161	150	13500	0.05	0.75	0.1	1.5	30	0	1;
161	195	13500	0.14	0.75	0.1	1.5	50	0	1;
162	187	31500	0.14	0.75	0.1	1.5	80	0	1;
163	140	31500	0.18	0.75	0.1	1.5	100	0	1;
164	176	11250	0.08	0.75	0.1	1.5	120	0	1;
165	175	11250	0.07	0.75	0.1	1.5	30	0	1;
166	146	11250	0.07	0.75	0.1	1.5	50	0	1;
166	180	9000	0.15	0.75	0.1	1.5	80	0	1;
166	191	11250	0.1	0.75	0.1	1.5	119.7	0	1;
167	159	9000	0.11	0.75	0.1	1.5	120	0	0;
168	155	9000	0.09	0.75	0.1	1.5	30	0	1;
168	173	10500	0.02	0.75	0.1	1.5	50	0	1;
169	167	9000	0.11	0.75	0.1	1.5	80	0	0;
169	201	11250	0.13	0.75	0.1	1.5	100	0	1;
170	142	11250	0.18	0.75	0.1	1.5	35.251	0	1;
170	185	11250	0.12	0.75	0.1	1.5	30	0	1;
171	153	10500	0.1	0.75	0.1	1.5	50	0	1;
171	192	10500	0.08	0.75	0.1	1.5	80	0	1;
172	159	11250	0.05	0.75	0.1	1.5	100	0	1;
173	154	12000	0.11	0.75	0.1	1.5	120	0	1;
173	181	12000	0.09	0.75	0.1	1.5	30	0	1;
174	158	11250	0.1	0.75	0.1	1.5	50	0	1;
174	183	11250	0.08	0.75	0.1	1.5	80	0	0;
175	190	11250	0.07	0.75	0.1	1.5	100	0	1;
176	22	1.49999e+006	0.72	0.75	0.1	1.5	120	0	1;
176	151	11250	0.14	0.75	0.1	1.5	30	0	1;
176	177	9000	0.05	0.75	0.1	1.5	50	0	1;
177	169	9000	0.11	0.75	0.1	1.5	80	0	1;
178	157	12000	0.17	0.75	0.1	1.5	76.0104	0	1;
178	173	12000	0.02	0.75	0.1	1.5	120	0	1;
178	186	9000	0.05	0.75	0.1	1.5	80.2485	0	1;
179	193	10500	0.08	0.75	0.1	1.5	50	0	1;
180	186	9000	0.14	0.75	0.1	1.5	80	0	1;
181	22	1.49999e+006	0.37	0.75	0.1	1.5	100	0	1;
181	178	12000	0.09	0.75	0.1	1.5	120	0	1;
181	184	12000	0.08	0.75	0.1	1.5	30	0	0;
182	152	9000	0.12	0.75	0.1	1.5	50	0	1;
182	179	9000	0.14	0.75	0.1	1.5	80	0	1;
183	149	9000	0.15	0.75	0.1	1.5	16.459	0	1;
183	174	11250	0.08	0.75	0.1	1.5	120	0	1;
183	196	7500	0.05	0.75	0.1	1.5	30	0	0;
184	172	11250	0.05	0.75	0.1	1.5	50	0	1;
184	181	12000	0.08	0.75	0.1	1.5	80	0	1;
184	194	12000	0.1	0.75	0.1	1.5	100	0	0;
185	170	11250	0.12	0.75	0.1	1.5	35.251	0	1;
185	196	11250	0.06	0.75	0.1	1.5	30	0	1;
186	178	9000	0.05	0.75	0.1	1.5	76.0104	0	1;
186	198	9000	0.18	0.75	0.1	1.5	80	0	1;
186	204	9000	0.07	0.75	0.1	1.5	100	0	1;
187	212	31500	0.11	0.75	0.1	1.5	120	0	1;
188	163	31500	0.14	0.75	0.1	1.5	30	0	1;
189	164	11250	0.07	0.75	0.1	1.5	50	0	1;
190	200	11250	0.07	0.75	0.1	1.5	80	0	1;
191	160	12000	0.15	0.75	0.1	1.5	66.3055	0	1;
191	166	11250	0.1	0.75	0.1	1.5	120	0	1;
191	182	9000	0.16	0.75	0.1	1.5	30	0	0;
191	197	11250	0.04	0.75	0.1	1.5	50	0	1;
191	231	12000	0.18	0.75	0.1	1.5	80	0	1;
192	171	10500	0.08	0.75	0.1	1.5	100	0	1;
192	193	9000	0.05	0.75	0.1	1.5	120	0	1;
192	205	10500	0.08	0.75	0.1	1.5	30	0	1;
193	192	9000	0.05	0.75	0.1	1.5	50	0	1;
193	208	9000	0.1	0.75	0.1	1.5	80	0	1;
193	221	10500	0.1	0.75	0.1	1.5	100	0	1;
194	167	9000	0.11	0.75	0.1	1.5	120	0	1;
194	184	12000	0.1	0.75	0.1	1.5	30	0	0;
194	201	12000	0.1	0.75	0.1	1.5	50	0	1;
195	161	13500	0.14	0.75	0.1	1.5	80	0	1;
195	217	13500	0.09	0.75	0.1	1.5	100	0	1;
196	183	7500	0.05	0.75	0.1	1.5	16.1565	0	0;
196	185	11250	0.06	0.75	0.1	1.5	35.251	0	1;
196	209	11250	0.13	0.75	0.1	1.5	50	0	1;
196	223	9000	0.15	0.75	0.1	1.5	80	0	1;
197	191	11250	0.04	0.75	0.1	1.5	100	0	1;
197	220	11250	0.06	0.75	0.1	1.5	120	0	1;
198	184	11250	0.06	0.75	0.1	1.5	30	0	1;
198	206	9000	0.09	0.75	0.1	1.5	50	0	1;
199	179	9000	0.11	0.75	0.1	1.5	108.897	0	1;
200	232	11250	0.12	0.75	0.1	1.5	100	0	1;
201	194	12000	0.1	0.75	0.1	1.5	120	0	0;
201	207	12000	0.11	0.75	0.1	1.5	30	0	1;
201	210	11250	0.05	0.75	0.1	1.5	50	0	0;
202	183	11250	0.15	0.75	0.1	1.5	80	0	1;
203	182	9000	0.09	0.75	0.1	1.5	100	0	1;
203	199	9000	0.09	0.75	0.1	1.5	108.897	0	1;
204	186	9000	0.07	0.75	0.1	1.5	30	0	1;
204	191	9000	0.26	0.75	0.1	1.5	50	0	0;
204	247	9000	0.11	0.75	0.1	1.5	80	0	1;
205	192	10500	0.08	0.75	0.1	1.5	100	0	1;
205	221	9000	0.05	0.75	0.1	1.5	120	0	1;
205	229	10500	0.08	0.75	0.1	1.5	30	0	1;
206	194	9000	0.06	0.75	0.1	1.5	50	0	1;
206	210	9000	0.1	0.75	0.1	1.5	80	0	1;
207	201	12000	0.11	0.75	0.1	1.5	100	0	1;
207	219	12000	0.1	0.75	0.1	1.5	120	0	1;
208	237	9000	0.1	0.75	0.1	1.5	30	0	1;
209	35	1.49999e+006	0.33	0.75	0.1	1.5	71.6973	0	1;
209	196	11250	0.13	0.75	0.1	1.5	80	0	1;
209	224	11250	0.05	0.75	0.1	1.5	100	0	1;
210	243	9000	0.19	0.75	0.1	1.5	120	0	1;
210	252	11250	0.1	0.75	0.1	1.5	30	0	1;
211	204	9000	0.1	0.75	0.1	1.5	50	0	1;
212	274	13500	0.25	0.75	0.1	1.5	80	0	1;
212	349	31500	0.36	0.75	0.1	1.5	100	0	1;
213	214	12000	0.05	0.75	0.1	1.5	120	0	1;
213	253	13500	0.14	0.75	0.1	1.5	30	0	1;
214	213	12000	0.05	0.75	0.1	1.5	50	0	1;
214	215	12000	0.1	0.75	0.1	1.5	80	0	1;
214	322	9000	0.25	0.75	0.1	1.5	100	0	1;
215	214	12000	0.1	0.75	0.1	1.5	120	0	1;
215	216	12000	0.05	0.75	0.1	1.5	30	0	1;
215	254	9000	0.11	0.75	0.1	1.5	81.6511	0	1;
216	27	1.49999e+006	0.5	0.75	0.1	1.5	80	0	1;
216	215	12000	0.05	0.75	0.1	1.5	100	0	1;
216	217	12000	0.05	0.75	0.1	1.5	120	0	1;
217	195	13500	0.09	0.75	0.1	1.5	30	0	1;
217	216	12000	0.05	0.75	0.1	1.5	50	0	1;
217	232	13500	0.05	0.75	0.1	1.5	80	0	1;
217	235	11250	0.06	0.75	0.1	1.5	100	0	1;
218	189	7500	0.05	0.75	0.1	1.5	120	0	1;
218	217	11250	0.08	0.75	0.1	1.5	30	0	1;
219	207	12000	0.1	0.75	0.1	1.5	50	0	1;
219	225	12000	0.11	0.75	0.1	1.5	80	0	1;
220	197	11250	0.06	0.75	0.1	1.5	100	0	1;
220	203	9000	0.16	0.75	0.1	1.5	108.836	0	0;
220	231	9000	0.12	0.75	0.1	1.5	30	0	1;
220	255	11250	0.1	0.75	0.1	1.5	50	0	1;
221	205	9000	0.05	0.75	0.1	1.5	80	0	1;
221	233	10500	0.05	0.75	0.1	1.5	100	0	1;
222	37	1.49999e+006	1.8	0.75	0.1	1.5	120	0	1;
222	230	9000	0.07	0.75	0.1	1.5	30	0	1;
222	260	9000	0.11	0.75	0.1	1.5	50	0	1;
223	257	9000	0.12	0.75	0.1	1.5	80	0	1;
224	209	11250	0.05	0.75	0.1	1.5	100	0	1;
224	245	11250	0.1	0.75	0.1	1.5	120	0	1;
224	249	9000	0.07	0.75	0.1	1.5	30	0	1;
225	218	13500	0.03	0.75	0.1	1.5	50	0	1;
225	219	12000	0.11	0.75	0.1	1.5	80	0	1;
225	250	13500	0.08	0.75	0.1	1.5	100	0	0;
226	209	9000	0.08	0.75	0.1	1.5	120	0	1;
227	188	31500	0.15	0.75	0.1	1.5	30	0	1;
228	198	11250	0.09	0.75	0.1	1.5	50	0	1;
228	211	9000	0.1	0.75	0.1	1.5	80	0	1;
229	205	10500	0.08	0.75	0.1	1.5	100	0	1;
229	257	10500	0.07	0.75	0.1	1.5	120	0	1;
230	222	9000	0.07	0.75	0.1	1.5	30	0	1;
230	261	9000	0.11	0.75	0.1	1.5	50	0	1;
231	191	12000	0.18	0.75	0.1	1.5	80	0	0;
231	247	9000	0.12	0.75	0.1	1.5	100	0	1;
231	264	12000	0.12	0.75	0.1	1.5	120	0	1;
232	254	11250	0.06	0.75	0.1	1.5	30	0	1;
233	23	1.49999e+006	0.22	0.75	0.1	1.5	26.7439	0	1;
233	241	9000	0.02	0.75	0.1	1.5	80	0	1;
233	256	10500	0.06	0.75	0.1	1.5	100	0	1;
234	138	12000	0.35	0.75	0.1	1.5	73.7939	0	1;
234	274	12000	0.11	0.75	0.1	1.5	30	0	1;
234	302	14250	0.15	0.75	0.1	1.5	50	0	1;
235	218	7500	0.04	0.75	0.1	1.5	48.4633	0	1;
235	225	11250	0.04	0.75	0.1	1.5	100	0	1;
236	203	9000	0.09	0.75	0.1	1.5	120	0	1;
236	246	9000	0.07	0.75	0.1	1.5	30	0	1;
237	236	9000	0.05	0.75	0.1	1.5	50	0	0;
238	237	9000	0.05	0.75	0.1	1.5	80	0	1;
239	238	9000	0.05	0.75	0.1	1.5	100	0	1;
239	333	9000	0.2	0.75	0.1	1.5	120	0	1;
240	239	9000	0.05	0.75	0.1	1.5	30	0	1;
241	240	9000	0.05	0.75	0.1	1.5	50	0	1;
242	202	11250	0.18	0.75	0.1	1.5	80	0	1;
243	250	9000	0.12	0.75	0.1	1.5	100	0	1;
244	206	9000	0.09	0.75	0.1	1.5	120	0	1;
244	228	9000	0.08	0.75	0.1	1.5	30	0	0;
245	224	11250	0.1	0.75	0.1	1.5	50	0	1;
245	258	11250	0.08	0.75	0.1	1.5	80	0	1;
246	255	9000	0.09	0.75	0.1	1.5	100	0	0;
247	204	9000	0.11	0.75	0.1	1.5	120	0	1;
247	251	9000	0.12	0.75	0.1	1.5	30	0	1;
247	264	9000	0.05	0.75	0.1	1.5	50	0	1;
248	226	9000	0.13	0.75	0.1	1.5	80	0	0;
248	289	9000	0.12	0.75	0.1	1.5	100	0	1;
249	263	9000	0.1	0.75	0.1	1.5	120	0	0;
249	291	9000	0.11	0.75	0.1	1.5	30	0	1;
250	225	13500	0.08	0.75	0.1	1.5	50	0	1;
250	295	13500	0.1	0.75	0.1	1.5	80	0	1;
251	262	9000	0.08	0.75	0.1	1.5	100	0	0;
252	25	1.49999e+006	0.12	0.75	0.1	1.5	120	0	1;
252	244	9000	0.11	0.75	0.1	1.5	30	0	0;
252	272	11250	0.05	0.75	0.1	1.5	50	0	1;
253	213	13500	0.14	0.75	0.1	1.5	80	0	1;
253	274	13500	0.21	0.75	0.1	1.5	100	0	1;
254	215	9000	0.11	0.75	0.1	1.5	120	0	1;
254	277	11250	0.07	0.75	0.1	1.5	30	0	1;
254	278	9000	0.05	0.75	0.1	1.5	50	0	1;
255	24	1.49999e+006	0.22	0.75	0.1	1.5	80	0	1;
255	220	11250	0.1	0.75	0.1	1.5	100	0	1;
255	280	9000	0.16	0.75	0.1	1.5	120	0	1;
255	281	11250	0.05	0.75	0.1	1.5	30	0	1;
256	294	10500	0.1	0.75	0.1	1.5	50	0	1;
257	229	10500	0.07	0.75	0.1	1.5	80	0	1;
257	271	10500	0.05	0.75	0.1	1.5	100	0	1;
258	35	1.49999e+006	0.48	0.75	0.1	1.5	120	0	1;
258	245	11250	0.08	0.75	0.1	1.5	30	0	1;
258	249	9000	0.13	0.75	0.1	1.5	50	0	1;
258	267	11250	0.07	0.75	0.1	1.5	80	0	1;
259	242	11250	0.11	0.75	0.1	1.5	100	0	1;
259	267	9000	0.05	0.75	0.1	1.5	120	0	0;
260	222	9000	0.11	0.75	0.1	1.5	30	0	1;
260	268	9000	0.07	0.75	0.1	1.5	50	0	1;
260	309	9000	0.15	0.75	0.1	1.5	80	0	1;
261	29	1.49999e+006	0.38	0.75	0.1	1.5	100	0	1;
261	230	9000	0.11	0.75	0.1	1.5	120	0	1;
261	288	9000	0.1	0.75	0.1	1.5	30	0	1;
262	228	11250	0.09	0.75	0.1	1.5	50	0	1;
262	265	9000	0.09	0.75	0.1	1.5	80	0	0;
263	226	9000	0.11	0.75	0.1	1.5	100	0	1;
263	289	9000	0.11	0.75	0.1	1.5	120	0	0;
264	247	9000	0.05	0.75	0.1	1.5	30	0	1;
264	279	12000	0.06	0.75	0.1	1.5	50	0	1;
265	244	9000	0.06	0.75	0.1	1.5	80	0	1;
265	272	9000	0.1	0.75	0.1	1.5	100	0	1;
266	248	9000	0.08	0.75	0.1	1.5	120	0	1;
267	258	11250	0.07	0.75	0.1	1.5	30	0	1;
267	259	9000	0.05	0.75	0.1	1.5	50	0	0;
267	282	9000	0.04	0.75	0.1	1.5	80	0	1;
267	286	6750	0.04	0.75	0.1	1.5	100	0	1;
268	296	9000	0.08	0.75	0.1	1.5	120	0	1;
269	231	12000	0.13	0.75	0.1	1.5	30	0	1;
269	264	9000	0.02	0.75	0.1	1.5	50	0	1;
270	252	9000	0.17	0.75	0.1	1.5	80	0	1;
271	257	10500	0.05	0.75	0.1	1.5	100	0	1;
271	266	9000	0.03	0.75	0.1	1.5	120	0	1;
272	25	1.49999e+006	0.08	0.75	0.1	1.5	30	0	1;
272	306	9000	0.18	0.75	0.1	1.5	50	0	1;
272	307	11250	0.07	0.75	0.1	1.5	80	0	1;
273	256	9000	0.07	0.75	0.1	1.5	100	0	1;
274	234	12000	0.11	0.75	0.1	1.5	120	0	1;
274	253	13500	0.21	0.75	0.1	1.5	30	0	1;
275	227	31500	0.14	0.75	0.1	1.5	50	0	1;
276	213	9000	0.16	0.75	0.1	1.5	80	0	1;
277	299	11250	0.05	0.75	0.1	1.5	100	0	1;
278	235	7500	0.15	0.75	0.1	1.5	120	0	1;
278	325	9000	0.1	0.75	0.1	1.5	30	0	1;
279	269	12000	0.05	0.75	0.1	1.5	50	0	1;
279	285	12000	0.05	0.75	0.1	1.5	80	0	1;
280	264	9000	0.07	0.75	0.1	1.5	100	0	1;
281	255	11250	0.05	0.75	0.1	1.5	120	0	1;
281	329	11250	0.1	0.75	0.1	1.5	30	0	1;
282	267	9000	0.04	0.75	0.1	1.5	50	0	1;
282	290	9000	0.05	0.75	0.1	1.5	80	0	1;
283	259	11250	0.11	0.75	0.1	1.5	100	0	1;
284	37	1.49999e+006	2.02	0.75	0.1	1.5	120	0	1;
284	51	1.49999e+006	0.45	0.75	0.1	1.5	98.471	0	1;
284	288	9000	0.08	0.75	0.1	1.5	70.0708	0	1;
285	279	12000	0.05	0.75	0.1	1.5	80	0	1;
285	293	12000	0.12	0.75	0.1	1.5	100	0	0;
286	287	6750	0.04	0.75	0.1	1.5	120	0	1;
286	297	22500	0.02	0.75	0.1	1.5	30	0	1;
287	35	1.49999e+006	0.55	0.75	0.1	1.5	50	0	1;
287	291	12000	0.12	0.75	0.1	1.5	80	0	1;
287	297	12000	0.05	0.75	0.1	1.5	100	0	1;
288	261	9000	0.1	0.75	0.1	1.5	120	0	1;
288	284	9000	0.08	0.75	0.1	1.5	30	0	1;
288	312	10500	0.13	0.75	0.1	1.5	50	0	1;
288	337	9000	0.1	0.75	0.1	1.5	80	0	1;
289	320	9000	0.08	0.75	0.1	1.5	100	0	1;
289	335	9000	0.16	0.75	0.1	1.5	120	0	1;
290	298	11250	0.04	0.75	0.1	1.5	30	0	1;
291	287	12000	0.12	0.75	0.1	1.5	50	0	1;
291	301	13500	0.07	0.75	0.1	1.5	80	0	1;
291	316	9000	0.08	0.75	0.1	1.5	100	0	1;
292	282	6750	0.03	0.75	0.1	1.5	120	0	1;
292	286	6750	0.04	0.75	0.1	1.5	30	0	1;
292	290	6750	0.05	0.75	0.1	1.5	73.1481	0	0;
293	262	11250	0.07	0.75	0.1	1.5	80	0	1;
293	285	12000	0.12	0.75	0.1	1.5	100	0	1;
293	303	12000	0.09	0.75	0.1	1.5	120	0	0;
294	318	10500	0.07	0.75	0.1	1.5	30	0	1;
295	250	13500	0.1	0.75	0.1	1.5	50	0	0;
295	270	9000	0.15	0.75	0.1	1.5	80	0	1;
295	326	13500	0.07	0.75	0.1	1.5	100	0	1;
296	261	9000	0.12	0.75	0.1	1.5	120	0	0;
296	312	10500	0.06	0.75	0.1	1.5	30	0	1;
297	292	22500	0.03	0.75	0.1	1.5	50	0	1;
297	308	12000	0.05	0.75	0.1	1.5	80	0	1;
298	314	11250	0.12	0.75	0.1	1.5	100	0	1;
299	323	11250	0.07	0.75	0.1	1.5	120	0	1;
300	276	9000	0.05	0.75	0.1	1.5	30	0	1;
301	263	9000	0.11	0.75	0.1	1.5	50	0	1;
301	291	13500	0.07	0.75	0.1	1.5	80	0	1;
301	311	13500	0.08	0.75	0.1	1.5	100	0	1;
302	234	14250	0.15	0.75	0.1	1.5	120	0	1;
302	321	14250	0.05	0.75	0.1	1.5	30	0	1;
303	265	9000	0.08	0.75	0.1	1.5	50	0	1;
303	293	12000	0.09	0.75	0.1	1.5	80	0	0;
303	307	12000	0.1	0.75	0.1	1.5	100	0	1;
304	1	1.49999e+006	0.33	0.75	0.1	1.5	120	0	1;
304	395	13500	0.15	0.75	0.1	1.5	30	0	1;
305	283	11250	0.11	0.75	0.1	1.5	50	0	1;
306	310	9000	0.06	0.75	0.1	1.5	80	0	1;
307	303	12000	0.1	0.75	0.1	1.5	100	0	0;
307	313	12000	0.1	0.75	0.1	1.5	120	0	1;
307	342	11250	0.09	0.75	0.1	1.5	30	0	1;
308	292	6750	0.04	0.75	0.1	1.5	50	0	1;
308	343	13500	0.08	0.75	0.1	1.5	80	0	1;
309	305	11250	0.06	0.75	0.1	1.5	100	0	1;
310	326	9000	0.07	0.75	0.1	1.5	120	0	1;
311	301	13500	0.08	0.75	0.1	1.5	30	0	1;
311	320	13500	0.06	0.75	0.1	1.5	50	0	1;
312	288	9000	0.13	0.75	0.1	1.5	80	0	1;
312	348	13500	0.13	0.75	0.1	1.5	100	0	1;
312	351	9000	0.11	0.75	0.1	1.5	120	0	1;
313	307	12000	0.1	0.75	0.1	1.5	30	0	1;
313	327	12000	0.06	0.75	0.1	1.5	50	0	1;
314	339	11250	0.06	0.75	0.1	1.5	80	0	1;
315	309	11250	0.06	0.75	0.1	1.5	100	0	1;
316	301	9000	0.05	0.75	0.1	1.5	120	0	1;
317	325	12000	0.05	0.75	0.1	1.5	30	0	1;
317	366	9000	0.11	0.75	0.1	1.5	50	0	1;
318	346	10500	0.06	0.75	0.1	1.5	80	0	1;
319	300	9000	0.06	0.75	0.1	1.5	100	0	1;
319	322	10500	0.12	0.75	0.1	1.5	120	0	1;
320	311	13500	0.06	0.75	0.1	1.5	30	0	1;
320	340	13500	0.07	0.75	0.1	1.5	50	0	1;
320	356	9000	0.08	0.75	0.1	1.5	80	0	1;
321	358	14250	0.1	0.75	0.1	1.5	100	0	1;
322	27	1.49999e+006	0.22	0.75	0.1	1.5	120	0	1;
322	319	10500	0.12	0.75	0.1	1.5	30	0	1;
322	323	10500	0.05	0.75	0.1	1.5	50	0	1;
322	359	4500	0.1	0.75	0.1	1.5	80	0	1;
323	322	10500	0.05	0.75	0.1	1.5	100	0	1;
323	324	12000	0.05	0.75	0.1	1.5	120	0	1;
323	359	11250	0.11	0.75	0.1	1.5	30	0	1;
324	278	11250	0.11	0.75	0.1	1.5	50	0	1;
324	323	12000	0.05	0.75	0.1	1.5	80	0	1;
324	325	12000	0.05	0.75	0.1	1.5	100	0	1;
325	295	9000	0.19	0.75	0.1	1.5	120	0	1;
325	324	12000	0.05	0.75	0.1	1.5	30	0	1;
326	295	13500	0.07	0.75	0.1	1.5	50	0	1;
326	327	12000	0.15	0.75	0.1	1.5	80	0	1;
326	336	12000	0.1	0.75	0.1	1.5	100	0	1;
326	373	13500	0.13	0.75	0.1	1.5	120	0	1;
327	313	12000	0.06	0.75	0.1	1.5	30	0	1;
327	326	12000	0.15	0.75	0.1	1.5	50	0	1;
328	293	11250	0.07	0.75	0.1	1.5	80	0	1;
329	281	11250	0.1	0.75	0.1	1.5	100	0	1;
329	330	9000	0.05	0.75	0.1	1.5	120	0	1;
329	361	11250	0.1	0.75	0.1	1.5	30	0	1;
330	331	9000	0.1	0.75	0.1	1.5	50	0	0;
331	236	9000	0.2	0.75	0.1	1.5	80	0	1;
331	332	9000	0.05	0.75	0.1	1.5	100	0	1;
332	333	9000	0.1	0.75	0.1	1.5	120	0	1;
333	334	9000	0.1	0.75	0.1	1.5	30	0	1;